<?xml version="1.0" encoding="UTF-8"?>
<graphml xmlns="http://graphml.graphdrawing.org/xmlns"
         xmlns:xsi="http://www.w3.org/2001/XMLSchema-instance"
         xsi:schemaLocation="http://graphml.graphdrawing.org/xmlns
         http://graphml.graphdrawing.org/xmlns/1.0/graphml.xsd">
<!-- Created by igraph -->
  <key id="v_name" for="node" attr.name="name" attr.type="string"/>
  <key id="v_description" for="node" attr.name="description" attr.type="string"/>
  <key id="v_database" for="node" attr.name="database" attr.type="string"/>
  <key id="v_pValue" for="node" attr.name="pValue" attr.type="double"/>
  <key id="v_pp" for="node" attr.name="pp" attr.type="double"/>
  <key id="v_size" for="node" attr.name="size" attr.type="double"/>
  <key id="v_nSignificant" for="node" attr.name="nSignificant" attr.type="double"/>
  <key id="v_setRank" for="node" attr.name="setRank" attr.type="double"/>
  <key id="v_pSetRank" for="node" attr.name="pSetRank" attr.type="double"/>
  <key id="v_correctedPValue" for="node" attr.name="correctedPValue" attr.type="double"/>
  <key id="v_adjustedPValue" for="node" attr.name="adjustedPValue" attr.type="double"/>
  <key id="e_type" for="edge" attr.name="type" attr.type="string"/>
  <key id="e_source_pDiff" for="edge" attr.name="source_pDiff" attr.type="double"/>
  <key id="e_source_ppDiff" for="edge" attr.name="source_ppDiff" attr.type="double"/>
  <key id="e_source_diffSize" for="edge" attr.name="source_diffSize" attr.type="double"/>
  <key id="e_sink_pDiff" for="edge" attr.name="sink_pDiff" attr.type="double"/>
  <key id="e_sink_ppDiff" for="edge" attr.name="sink_ppDiff" attr.type="double"/>
  <key id="e_sink_diffSize" for="edge" attr.name="sink_diffSize" attr.type="double"/>
  <key id="e_deltaP" for="edge" attr.name="deltaP" attr.type="double"/>
  <key id="e_intersectionSize" for="edge" attr.name="intersectionSize" attr.type="double"/>
  <key id="e_pIntersection" for="edge" attr.name="pIntersection" attr.type="double"/>
  <key id="e_ppIntersection" for="edge" attr.name="ppIntersection" attr.type="double"/>
  <key id="e_jaccard" for="edge" attr.name="jaccard" attr.type="double"/>
  <key id="e_significantJaccard" for="edge" attr.name="significantJaccard" attr.type="double"/>
  <key id="e_discardSource" for="edge" attr.name="discardSource" attr.type="boolean"/>
  <key id="e_discardSink" for="edge" attr.name="discardSink" attr.type="boolean"/>
  <graph id="G" edgedefault="directed">
    <node id="n0">
      <data key="v_name">map00010</data>
      <data key="v_description">Glycolysis / Gluconeogenesis</data>
      <data key="v_database">KEGG</data>
      <data key="v_pValue">0.0259973132840932</data>
      <data key="v_pp">1.05924591268208</data>
      <data key="v_size">137</data>
      <data key="v_nSignificant">0</data>
      <data key="v_setRank">0.105044400241963</data>
      <data key="v_pSetRank">2.01720645534064e-18</data>
      <data key="v_correctedPValue">0.0872477201474114</data>
      <data key="v_adjustedPValue">0.000164824778119599</data>
    </node>
    <node id="n1">
      <data key="v_name">map00020</data>
      <data key="v_description">Citrate cycle (TCA cycle)</data>
      <data key="v_database">KEGG</data>
      <data key="v_pValue">0.945649130222032</data>
      <data key="v_pp">-0</data>
      <data key="v_size">86</data>
      <data key="v_nSignificant">0</data>
      <data key="v_setRank">0.00174086336333903</data>
      <data key="v_pSetRank">1</data>
      <data key="v_correctedPValue">1</data>
      <data key="v_adjustedPValue">0.000164824778119599</data>
    </node>
    <node id="n2">
      <data key="v_name">map00030</data>
      <data key="v_description">Pentose phosphate pathway</data>
      <data key="v_database">KEGG</data>
      <data key="v_pValue">0.153325911504296</data>
      <data key="v_pp">0.235239836265656</data>
      <data key="v_size">120</data>
      <data key="v_nSignificant">0</data>
      <data key="v_setRank">0.00362139259120252</data>
      <data key="v_pSetRank">1</data>
      <data key="v_correctedPValue">0.581781843851365</data>
      <data key="v_adjustedPValue">0.000164824778119599</data>
    </node>
    <node id="n3">
      <data key="v_name">map00040</data>
      <data key="v_description">Pentose and glucuronate interconversions</data>
      <data key="v_database">KEGG</data>
      <data key="v_pValue">0.299292200672623</data>
      <data key="v_pp">0.0881242230710723</data>
      <data key="v_size">147</data>
      <data key="v_nSignificant">0</data>
      <data key="v_setRank">0.00175573887500135</data>
      <data key="v_pSetRank">1</data>
      <data key="v_correctedPValue">0.816348834281466</data>
      <data key="v_adjustedPValue">0.000164824778119599</data>
    </node>
    <node id="n4">
      <data key="v_name">map00051</data>
      <data key="v_description">Fructose and mannose metabolism</data>
      <data key="v_database">KEGG</data>
      <data key="v_pValue">0.0827295874001962</data>
      <data key="v_pp">0.984240547632867</data>
      <data key="v_size">166</data>
      <data key="v_nSignificant">0</data>
      <data key="v_setRank">0.00593727489708636</data>
      <data key="v_pSetRank">1</data>
      <data key="v_correctedPValue">0.103695390725266</data>
      <data key="v_adjustedPValue">0.000164824778119599</data>
    </node>
    <node id="n5">
      <data key="v_name">map00052</data>
      <data key="v_description">Galactose metabolism</data>
      <data key="v_database">KEGG</data>
      <data key="v_pValue">0.368897179450582</data>
      <data key="v_pp">0.258180794484239</data>
      <data key="v_size">124</data>
      <data key="v_nSignificant">0</data>
      <data key="v_setRank">0.0050682213256852</data>
      <data key="v_pSetRank">1</data>
      <data key="v_correctedPValue">0.551847660208682</data>
      <data key="v_adjustedPValue">0.000164824778119599</data>
    </node>
    <node id="n6">
      <data key="v_name">map00053</data>
      <data key="v_description">Ascorbate and aldarate metabolism</data>
      <data key="v_database">KEGG</data>
      <data key="v_pValue">0.604909294357665</data>
      <data key="v_pp">0.0353060003041246</data>
      <data key="v_size">119</data>
      <data key="v_nSignificant">0</data>
      <data key="v_setRank">0.00133949955039802</data>
      <data key="v_pSetRank">1</data>
      <data key="v_correctedPValue">0.921921619900097</data>
      <data key="v_adjustedPValue">0.000164824778119599</data>
    </node>
    <node id="n7">
      <data key="v_name">map00061</data>
      <data key="v_description">Fatty acid biosynthesis</data>
      <data key="v_database">KEGG</data>
      <data key="v_pValue">0.377007375207392</data>
      <data key="v_pp">0.312266914496311</data>
      <data key="v_size">97</data>
      <data key="v_nSignificant">0</data>
      <data key="v_setRank">0.0037782970274806</data>
      <data key="v_pSetRank">1</data>
      <data key="v_correctedPValue">0.487228950397141</data>
      <data key="v_adjustedPValue">0.000164824778119599</data>
    </node>
    <node id="n8">
      <data key="v_name">map00062</data>
      <data key="v_description">Fatty acid elongation</data>
      <data key="v_database">KEGG</data>
      <data key="v_pValue">1</data>
      <data key="v_pp">-0</data>
      <data key="v_size">64</data>
      <data key="v_nSignificant">0</data>
      <data key="v_setRank">0.00125803600810555</data>
      <data key="v_pSetRank">1</data>
      <data key="v_correctedPValue">1</data>
      <data key="v_adjustedPValue">0.000164824778119599</data>
    </node>
    <node id="n9">
      <data key="v_name">map00071</data>
      <data key="v_description">Fatty acid degradation</data>
      <data key="v_database">KEGG</data>
      <data key="v_pValue">0.523659861208891</data>
      <data key="v_pp">0.140305597097832</data>
      <data key="v_size">109</data>
      <data key="v_nSignificant">0</data>
      <data key="v_setRank">0.00398415154334959</data>
      <data key="v_pSetRank">1</data>
      <data key="v_correctedPValue">0.723926380368098</data>
      <data key="v_adjustedPValue">0.000164824778119599</data>
    </node>
    <node id="n10">
      <data key="v_name">map00073</data>
      <data key="v_description">Cutin, suberine and wax biosynthesis</data>
      <data key="v_database">KEGG</data>
      <data key="v_pValue">1</data>
      <data key="v_pp">-0</data>
      <data key="v_size">41</data>
      <data key="v_nSignificant">0</data>
      <data key="v_setRank">0.00107879657747494</data>
      <data key="v_pSetRank">1</data>
      <data key="v_correctedPValue">1</data>
      <data key="v_adjustedPValue">0.000164824778119599</data>
    </node>
    <node id="n11">
      <data key="v_name">map00100</data>
      <data key="v_description">Steroid biosynthesis</data>
      <data key="v_database">KEGG</data>
      <data key="v_pValue">1</data>
      <data key="v_pp">-0</data>
      <data key="v_size">91</data>
      <data key="v_nSignificant">0</data>
      <data key="v_setRank">0.00153379409336808</data>
      <data key="v_pSetRank">1</data>
      <data key="v_correctedPValue">1</data>
      <data key="v_adjustedPValue">0.000164824778119599</data>
    </node>
    <node id="n12">
      <data key="v_name">map00130</data>
      <data key="v_description">Ubiquinone and other terpenoid-quinone biosynthesis</data>
      <data key="v_database">KEGG</data>
      <data key="v_pValue">0.488748285510016</data>
      <data key="v_pp">-0</data>
      <data key="v_size">130</data>
      <data key="v_nSignificant">0</data>
      <data key="v_setRank">0.00154895070839579</data>
      <data key="v_pSetRank">1</data>
      <data key="v_correctedPValue">1</data>
      <data key="v_adjustedPValue">0.000164824778119599</data>
    </node>
    <node id="n13">
      <data key="v_name">map00140</data>
      <data key="v_description">Steroid hormone biosynthesis</data>
      <data key="v_database">KEGG</data>
      <data key="v_pValue">0.548057259713701</data>
      <data key="v_pp">0.261174065094832</data>
      <data key="v_size">146</data>
      <data key="v_nSignificant">0</data>
      <data key="v_setRank">0.00154703143685635</data>
      <data key="v_pSetRank">1</data>
      <data key="v_correctedPValue">0.548057259713701</data>
      <data key="v_adjustedPValue">0.000164824778119599</data>
    </node>
    <node id="n14">
      <data key="v_name">map00190</data>
      <data key="v_description">Oxidative phosphorylation</data>
      <data key="v_database">KEGG</data>
      <data key="v_pValue">0.000127632350286227</data>
      <data key="v_pp">3.89403923337259</data>
      <data key="v_size">239</data>
      <data key="v_nSignificant">0</data>
      <data key="v_setRank">0.00574396150969317</data>
      <data key="v_pSetRank">1</data>
      <data key="v_correctedPValue">0.000127632350286227</data>
      <data key="v_adjustedPValue">0.000164824778119599</data>
    </node>
    <node id="n15">
      <data key="v_name">map00220</data>
      <data key="v_description">Arginine biosynthesis</data>
      <data key="v_database">KEGG</data>
      <data key="v_pValue">0.541995185051847</data>
      <data key="v_pp">0.206873340078838</data>
      <data key="v_size">83</data>
      <data key="v_nSignificant">0</data>
      <data key="v_setRank">0.00235717757606151</data>
      <data key="v_pSetRank">1</data>
      <data key="v_correctedPValue">0.621050134139681</data>
      <data key="v_adjustedPValue">0.000164824778119599</data>
    </node>
    <node id="n16">
      <data key="v_name">map00230</data>
      <data key="v_description">Purine metabolism</data>
      <data key="v_database">KEGG</data>
      <data key="v_pValue">0.0181305183823234</data>
      <data key="v_pp">1.69848423800402</data>
      <data key="v_size">318</data>
      <data key="v_nSignificant">0</data>
      <data key="v_setRank">0.00666187821884181</data>
      <data key="v_pSetRank">1</data>
      <data key="v_correctedPValue">0.0200223828817927</data>
      <data key="v_adjustedPValue">0.000164824778119599</data>
    </node>
    <node id="n17">
      <data key="v_name">map00232</data>
      <data key="v_description">Caffeine metabolism</data>
      <data key="v_database">KEGG</data>
      <data key="v_pValue">0.865165529761943</data>
      <data key="v_pp">-0</data>
      <data key="v_size">38</data>
      <data key="v_nSignificant">0</data>
      <data key="v_setRank">0.000985702456576083</data>
      <data key="v_pSetRank">1</data>
      <data key="v_correctedPValue">1</data>
      <data key="v_adjustedPValue">0.000164824778119599</data>
    </node>
    <node id="n18">
      <data key="v_name">map00240</data>
      <data key="v_description">Pyrimidine metabolism</data>
      <data key="v_database">KEGG</data>
      <data key="v_pValue">0.000724744007689182</data>
      <data key="v_pp">3.13981536678122</data>
      <data key="v_size">174</data>
      <data key="v_nSignificant">0</data>
      <data key="v_setRank">0.00861696711981955</data>
      <data key="v_pSetRank">1</data>
      <data key="v_correctedPValue">0.000724744007689182</data>
      <data key="v_adjustedPValue">0.000164824778119599</data>
    </node>
    <node id="n19">
      <data key="v_name">map00250</data>
      <data key="v_description">Alanine, aspartate and glutamate metabolism</data>
      <data key="v_database">KEGG</data>
      <data key="v_pValue">0.212352243771414</data>
      <data key="v_pp">0.490781462397223</data>
      <data key="v_size">98</data>
      <data key="v_nSignificant">0</data>
      <data key="v_setRank">0.00487966309390058</data>
      <data key="v_pSetRank">1</data>
      <data key="v_correctedPValue">0.323011911337462</data>
      <data key="v_adjustedPValue">0.000164824778119599</data>
    </node>
    <node id="n20">
      <data key="v_name">map00253</data>
      <data key="v_description">Tetracycline biosynthesis</data>
      <data key="v_database">KEGG</data>
      <data key="v_pValue">1</data>
      <data key="v_pp">-0</data>
      <data key="v_size">38</data>
      <data key="v_nSignificant">0</data>
      <data key="v_setRank">0.0015240192106737</data>
      <data key="v_pSetRank">1</data>
      <data key="v_correctedPValue">1</data>
      <data key="v_adjustedPValue">0.000164824778119599</data>
    </node>
    <node id="n21">
      <data key="v_name">map00254</data>
      <data key="v_description">Aflatoxin biosynthesis</data>
      <data key="v_database">KEGG</data>
      <data key="v_pValue">1</data>
      <data key="v_pp">-0</data>
      <data key="v_size">47</data>
      <data key="v_nSignificant">0</data>
      <data key="v_setRank">0.00110509566662886</data>
      <data key="v_pSetRank">1</data>
      <data key="v_correctedPValue">1</data>
      <data key="v_adjustedPValue">0.000164824778119599</data>
    </node>
    <node id="n22">
      <data key="v_name">map00260</data>
      <data key="v_description">Glycine, serine and threonine metabolism</data>
      <data key="v_database">KEGG</data>
      <data key="v_pValue">0.16399161098257</data>
      <data key="v_pp">0.562318876461532</data>
      <data key="v_size">157</data>
      <data key="v_nSignificant">0</data>
      <data key="v_setRank">0.00356755942657176</data>
      <data key="v_pSetRank">1</data>
      <data key="v_correctedPValue">0.273956193681802</data>
      <data key="v_adjustedPValue">0.000164824778119599</data>
    </node>
    <node id="n23">
      <data key="v_name">map00261</data>
      <data key="v_description">Monobactam biosynthesis</data>
      <data key="v_database">KEGG</data>
      <data key="v_pValue">0.322403368550924</data>
      <data key="v_pp">0.177296082777219</data>
      <data key="v_size">67</data>
      <data key="v_nSignificant">0</data>
      <data key="v_setRank">0.00130385702788929</data>
      <data key="v_pSetRank">1</data>
      <data key="v_correctedPValue">0.664819756947501</data>
      <data key="v_adjustedPValue">0.000164824778119599</data>
    </node>
    <node id="n24">
      <data key="v_name">map00270</data>
      <data key="v_description">Cysteine and methionine metabolism</data>
      <data key="v_database">KEGG</data>
      <data key="v_pValue">0.0419063611882118</data>
      <data key="v_pp">0.953508266375621</data>
      <data key="v_size">189</data>
      <data key="v_nSignificant">0</data>
      <data key="v_setRank">0.0131437056558033</data>
      <data key="v_pSetRank">0.0345498947565526</data>
      <data key="v_correctedPValue">0.111299120788849</data>
      <data key="v_adjustedPValue">0.000164824778119599</data>
    </node>
    <node id="n25">
      <data key="v_name">map00280</data>
      <data key="v_description">Valine, leucine and isoleucine degradation</data>
      <data key="v_database">KEGG</data>
      <data key="v_pValue">0.223289501829574</data>
      <data key="v_pp">0.0619014568450813</data>
      <data key="v_size">111</data>
      <data key="v_nSignificant">0</data>
      <data key="v_setRank">0.00357652122924136</data>
      <data key="v_pSetRank">1</data>
      <data key="v_correctedPValue">0.867158615194907</data>
      <data key="v_adjustedPValue">0.000164824778119599</data>
    </node>
    <node id="n26">
      <data key="v_name">map00290</data>
      <data key="v_description">Valine, leucine and isoleucine biosynthesis</data>
      <data key="v_database">KEGG</data>
      <data key="v_pValue">0.00352170957268385</data>
      <data key="v_pp">-0</data>
      <data key="v_size">42</data>
      <data key="v_nSignificant">0</data>
      <data key="v_setRank">0.00983401386374863</data>
      <data key="v_pSetRank">0.546871940681762</data>
      <data key="v_correctedPValue">1</data>
      <data key="v_adjustedPValue">0.000164824778119599</data>
    </node>
    <node id="n27">
      <data key="v_name">map00300</data>
      <data key="v_description">Lysine biosynthesis</data>
      <data key="v_database">KEGG</data>
      <data key="v_pValue">0.0297359438851884</data>
      <data key="v_pp">0.853122663668551</data>
      <data key="v_size">83</data>
      <data key="v_nSignificant">0</data>
      <data key="v_setRank">0.00640805379451906</data>
      <data key="v_pSetRank">1</data>
      <data key="v_correctedPValue">0.140241754484978</data>
      <data key="v_adjustedPValue">0.000164824778119599</data>
    </node>
    <node id="n28">
      <data key="v_name">map00310</data>
      <data key="v_description">Lysine degradation</data>
      <data key="v_database">KEGG</data>
      <data key="v_pValue">0.951621367048852</data>
      <data key="v_pp">0.013418111706191</data>
      <data key="v_size">148</data>
      <data key="v_nSignificant">0</data>
      <data key="v_setRank">0.00127944122006872</data>
      <data key="v_pSetRank">1</data>
      <data key="v_correctedPValue">0.969576070253422</data>
      <data key="v_adjustedPValue">0.000164824778119599</data>
    </node>
    <node id="n29">
      <data key="v_name">map00330</data>
      <data key="v_description">Arginine and proline metabolism</data>
      <data key="v_database">KEGG</data>
      <data key="v_pValue">0.488853155810321</data>
      <data key="v_pp">0.260121550559927</data>
      <data key="v_size">176</data>
      <data key="v_nSignificant">0</data>
      <data key="v_setRank">0.002287668272295</data>
      <data key="v_pSetRank">1</data>
      <data key="v_correctedPValue">0.549387089600661</data>
      <data key="v_adjustedPValue">0.000164824778119599</data>
    </node>
    <node id="n30">
      <data key="v_name">map00331</data>
      <data key="v_description">Clavulanic acid biosynthesis</data>
      <data key="v_database">KEGG</data>
      <data key="v_pValue">0.578732106339468</data>
      <data key="v_pp">-0</data>
      <data key="v_size">15</data>
      <data key="v_nSignificant">0</data>
      <data key="v_setRank">0.000985702456576083</data>
      <data key="v_pSetRank">1</data>
      <data key="v_correctedPValue">1</data>
      <data key="v_adjustedPValue">0.000164824778119599</data>
    </node>
    <node id="n31">
      <data key="v_name">map00332</data>
      <data key="v_description">Carbapenem biosynthesis</data>
      <data key="v_database">KEGG</data>
      <data key="v_pValue">0.666628909941941</data>
      <data key="v_pp">-0</data>
      <data key="v_size">51</data>
      <data key="v_nSignificant">0</data>
      <data key="v_setRank">0.00113454545000148</data>
      <data key="v_pSetRank">1</data>
      <data key="v_correctedPValue">1</data>
      <data key="v_adjustedPValue">0.000164824778119599</data>
    </node>
    <node id="n32">
      <data key="v_name">map00333</data>
      <data key="v_description">Prodigiosin biosynthesis</data>
      <data key="v_database">KEGG</data>
      <data key="v_pValue">0.415828745409408</data>
      <data key="v_pp">0.0438865897745284</data>
      <data key="v_size">38</data>
      <data key="v_nSignificant">0</data>
      <data key="v_setRank">0.00136732267483272</data>
      <data key="v_pSetRank">1</data>
      <data key="v_correctedPValue">0.903885480572597</data>
      <data key="v_adjustedPValue">0.000164824778119599</data>
    </node>
    <node id="n33">
      <data key="v_name">map00340</data>
      <data key="v_description">Histidine metabolism</data>
      <data key="v_database">KEGG</data>
      <data key="v_pValue">0.860833997568259</data>
      <data key="v_pp">0.0595946914404455</data>
      <data key="v_size">94</data>
      <data key="v_nSignificant">0</data>
      <data key="v_setRank">0.0011386621224555</data>
      <data key="v_pSetRank">1</data>
      <data key="v_correctedPValue">0.871776802622093</data>
      <data key="v_adjustedPValue">0.000164824778119599</data>
    </node>
    <node id="n34">
      <data key="v_name">map00350</data>
      <data key="v_description">Tyrosine metabolism</data>
      <data key="v_database">KEGG</data>
      <data key="v_pValue">0.539586691901748</data>
      <data key="v_pp">0.185926713477519</data>
      <data key="v_size">162</data>
      <data key="v_nSignificant">0</data>
      <data key="v_setRank">0.0035730129537778</data>
      <data key="v_pSetRank">1</data>
      <data key="v_correctedPValue">0.651738364623462</data>
      <data key="v_adjustedPValue">0.000164824778119599</data>
    </node>
    <node id="n35">
      <data key="v_name">map00360</data>
      <data key="v_description">Phenylalanine metabolism</data>
      <data key="v_database">KEGG</data>
      <data key="v_pValue">0.846620249268592</data>
      <data key="v_pp">0.0359675473893072</data>
      <data key="v_size">123</data>
      <data key="v_nSignificant">0</data>
      <data key="v_setRank">0.00151984661393699</data>
      <data key="v_pSetRank">1</data>
      <data key="v_correctedPValue">0.920518354823048</data>
      <data key="v_adjustedPValue">0.000164824778119599</data>
    </node>
    <node id="n36">
      <data key="v_name">map00361</data>
      <data key="v_description">Chlorocyclohexane and chlorobenzene degradation</data>
      <data key="v_database">KEGG</data>
      <data key="v_pValue">0.737453484863723</data>
      <data key="v_pp">-0</data>
      <data key="v_size">124</data>
      <data key="v_nSignificant">0</data>
      <data key="v_setRank">0.00133513787528831</data>
      <data key="v_pSetRank">1</data>
      <data key="v_correctedPValue">1</data>
      <data key="v_adjustedPValue">0.000164824778119599</data>
    </node>
    <node id="n37">
      <data key="v_name">map00362</data>
      <data key="v_description">Benzoate degradation</data>
      <data key="v_database">KEGG</data>
      <data key="v_pValue">0.358526936873513</data>
      <data key="v_pp">-0</data>
      <data key="v_size">178</data>
      <data key="v_nSignificant">0</data>
      <data key="v_setRank">0.00489888228663187</data>
      <data key="v_pSetRank">1</data>
      <data key="v_correctedPValue">1</data>
      <data key="v_adjustedPValue">0.000164824778119599</data>
    </node>
    <node id="n38">
      <data key="v_name">map00363</data>
      <data key="v_description">Bisphenol degradation</data>
      <data key="v_database">KEGG</data>
      <data key="v_pValue">1</data>
      <data key="v_pp">-0</data>
      <data key="v_size">27</data>
      <data key="v_nSignificant">0</data>
      <data key="v_setRank">0.000985702456576083</data>
      <data key="v_pSetRank">1</data>
      <data key="v_correctedPValue">1</data>
      <data key="v_adjustedPValue">0.000164824778119599</data>
    </node>
    <node id="n39">
      <data key="v_name">map00364</data>
      <data key="v_description">Fluorobenzoate degradation</data>
      <data key="v_database">KEGG</data>
      <data key="v_pValue">0.593047034764826</data>
      <data key="v_pp">-0</data>
      <data key="v_size">50</data>
      <data key="v_nSignificant">0</data>
      <data key="v_setRank">0.00164440197041047</data>
      <data key="v_pSetRank">1</data>
      <data key="v_correctedPValue">1</data>
      <data key="v_adjustedPValue">0.000164824778119599</data>
    </node>
    <node id="n40">
      <data key="v_name">map00380</data>
      <data key="v_description">Tryptophan metabolism</data>
      <data key="v_database">KEGG</data>
      <data key="v_pValue">0.610577571417862</data>
      <data key="v_pp">0.0712607624115276</data>
      <data key="v_size">163</data>
      <data key="v_nSignificant">0</data>
      <data key="v_setRank">0.00180925399045689</data>
      <data key="v_pSetRank">1</data>
      <data key="v_correctedPValue">0.848670756646217</data>
      <data key="v_adjustedPValue">0.000164824778119599</data>
    </node>
    <node id="n41">
      <data key="v_name">map00400</data>
      <data key="v_description">Phenylalanine, tyrosine and tryptophan biosynthesis</data>
      <data key="v_database">KEGG</data>
      <data key="v_pValue">0.0778899295387621</data>
      <data key="v_pp">-0</data>
      <data key="v_size">106</data>
      <data key="v_nSignificant">0</data>
      <data key="v_setRank">0.00671316321504142</data>
      <data key="v_pSetRank">1</data>
      <data key="v_correctedPValue">1</data>
      <data key="v_adjustedPValue">0.000164824778119599</data>
    </node>
    <node id="n42">
      <data key="v_name">map00401</data>
      <data key="v_description">Novobiocin biosynthesis</data>
      <data key="v_database">KEGG</data>
      <data key="v_pValue">0.499261343065103</data>
      <data key="v_pp">-0</data>
      <data key="v_size">62</data>
      <data key="v_nSignificant">0</data>
      <data key="v_setRank">0.00181911838024896</data>
      <data key="v_pSetRank">1</data>
      <data key="v_correctedPValue">1</data>
      <data key="v_adjustedPValue">0.000164824778119599</data>
    </node>
    <node id="n43">
      <data key="v_name">map00402</data>
      <data key="v_description">Benzoxazinoid biosynthesis</data>
      <data key="v_database">KEGG</data>
      <data key="v_pValue">0.750511247443763</data>
      <data key="v_pp">0.124642794871531</data>
      <data key="v_size">17</data>
      <data key="v_nSignificant">0</data>
      <data key="v_setRank">0.000985702456576083</data>
      <data key="v_pSetRank">1</data>
      <data key="v_correctedPValue">0.750511247443763</data>
      <data key="v_adjustedPValue">0.000164824778119599</data>
    </node>
    <node id="n44">
      <data key="v_name">map00405</data>
      <data key="v_description">Phenazine biosynthesis</data>
      <data key="v_database">KEGG</data>
      <data key="v_pValue">0.269293305172819</data>
      <data key="v_pp">-0</data>
      <data key="v_size">47</data>
      <data key="v_nSignificant">0</data>
      <data key="v_setRank">0.00117222816456205</data>
      <data key="v_pSetRank">1</data>
      <data key="v_correctedPValue">1</data>
      <data key="v_adjustedPValue">0.000164824778119599</data>
    </node>
    <node id="n45">
      <data key="v_name">map00410</data>
      <data key="v_description">beta-Alanine metabolism</data>
      <data key="v_database">KEGG</data>
      <data key="v_pValue">0.852981324551031</data>
      <data key="v_pp">0.0172110011879028</data>
      <data key="v_size">77</data>
      <data key="v_nSignificant">0</data>
      <data key="v_setRank">0.0015616451666731</data>
      <data key="v_pSetRank">1</data>
      <data key="v_correctedPValue">0.961145194274029</data>
      <data key="v_adjustedPValue">0.000164824778119599</data>
    </node>
    <node id="n46">
      <data key="v_name">map00430</data>
      <data key="v_description">Taurine and hypotaurine metabolism</data>
      <data key="v_database">KEGG</data>
      <data key="v_pValue">0.756365304085392</data>
      <data key="v_pp">0.0514813252761005</data>
      <data key="v_size">53</data>
      <data key="v_nSignificant">0</data>
      <data key="v_setRank">0.00220098245792343</data>
      <data key="v_pSetRank">1</data>
      <data key="v_correctedPValue">0.888216168918482</data>
      <data key="v_adjustedPValue">0.000164824778119599</data>
    </node>
    <node id="n47">
      <data key="v_name">map00440</data>
      <data key="v_description">Phosphonate and phosphinate metabolism</data>
      <data key="v_database">KEGG</data>
      <data key="v_pValue">0.852676925139965</data>
      <data key="v_pp">0.0692154895908516</data>
      <data key="v_size">100</data>
      <data key="v_nSignificant">0</data>
      <data key="v_setRank">0.00128371497105923</data>
      <data key="v_pSetRank">1</data>
      <data key="v_correctedPValue">0.852676925139965</data>
      <data key="v_adjustedPValue">0.000164824778119599</data>
    </node>
    <node id="n48">
      <data key="v_name">map00450</data>
      <data key="v_description">Selenocompound metabolism</data>
      <data key="v_database">KEGG</data>
      <data key="v_pValue">0.132805595044394</data>
      <data key="v_pp">0.729757361365836</data>
      <data key="v_size">60</data>
      <data key="v_nSignificant">0</data>
      <data key="v_setRank">0.00107805899605157</data>
      <data key="v_pSetRank">1</data>