<?xml version="1.0" encoding="UTF-8"?>
<graphml xmlns="http://graphml.graphdrawing.org/xmlns"
         xmlns:xsi="http://www.w3.org/2001/XMLSchema-instance"
         xsi:schemaLocation="http://graphml.graphdrawing.org/xmlns
         http://graphml.graphdrawing.org/xmlns/1.0/graphml.xsd">
<!-- Created by igraph -->
  <key id="v_name" for="node" attr.name="name" attr.type="string"/>
  <key id="v_description" for="node" attr.name="description" attr.type="string"/>
  <key id="v_database" for="node" attr.name="database" attr.type="string"/>
  <key id="v_pValue" for="node" attr.name="pValue" attr.type="double"/>
  <key id="v_pp" for="node" attr.name="pp" attr.type="double"/>
  <key id="v_size" for="node" attr.name="size" attr.type="double"/>
  <key id="v_nSignificant" for="node" attr.name="nSignificant" attr.type="double"/>
  <key id="v_setRank" for="node" attr.name="setRank" attr.type="double"/>
  <key id="v_pSetRank" for="node" attr.name="pSetRank" attr.type="double"/>
  <key id="v_correctedPValue" for="node" attr.name="correctedPValue" attr.type="double"/>
  <key id="v_adjustedPValue" for="node" attr.name="adjustedPValue" attr.type="double"/>
  <key id="e_type" for="edge" attr.name="type" attr.type="string"/>
  <key id="e_source_pDiff" for="edge" attr.name="source_pDiff" attr.type="double"/>
  <key id="e_source_ppDiff" for="edge" attr.name="source_ppDiff" attr.type="double"/>
  <key id="e_source_diffSize" for="edge" attr.name="source_diffSize" attr.type="double"/>
  <key id="e_sink_pDiff" for="edge" attr.name="sink_pDiff" attr.type="double"/>
  <key id="e_sink_ppDiff" for="edge" attr.name="sink_ppDiff" attr.type="double"/>
  <key id="e_sink_diffSize" for="edge" attr.name="sink_diffSize" attr.type="double"/>
  <key id="e_deltaP" for="edge" attr.name="deltaP" attr.type="double"/>
  <key id="e_intersectionSize" for="edge" attr.name="intersectionSize" attr.type="double"/>
  <key id="e_pIntersection" for="edge" attr.name="pIntersection" attr.type="double"/>
  <key id="e_ppIntersection" for="edge" attr.name="ppIntersection" attr.type="double"/>
  <key id="e_jaccard" for="edge" attr.name="jaccard" attr.type="double"/>
  <key id="e_significantJaccard" for="edge" attr.name="significantJaccard" attr.type="double"/>
  <key id="e_discardSource" for="edge" attr.name="discardSource" attr.type="boolean"/>
  <key id="e_discardSink" for="edge" attr.name="discardSink" attr.type="boolean"/>
  <graph id="G" edgedefault="directed">
    <node id="n0">
      <data key="v_name">map00010</data>
      <data key="v_description">Glycolysis / Gluconeogenesis</data>
      <data key="v_database">KEGG</data>
      <data key="v_pValue">0.00874681621272511</data>
      <data key="v_pp">0.411385195027376</data>
      <data key="v_size">137</data>
      <data key="v_nSignificant">0</data>
      <data key="v_setRank">0.0349038194263601</data>
      <data key="v_pSetRank">1.02412041058724e-08</data>
      <data key="v_correctedPValue">0.387806250853192</data>
      <data key="v_adjustedPValue">0.000159640519592135</data>
    </node>
    <node id="n1">
      <data key="v_name">map00020</data>
      <data key="v_description">Citrate cycle (TCA cycle)</data>
      <data key="v_database">KEGG</data>
      <data key="v_pValue">0.518884542627928</data>
      <data key="v_pp">-0</data>
      <data key="v_size">86</data>
      <data key="v_nSignificant">0</data>
      <data key="v_setRank">0.0023467391081146</data>
      <data key="v_pSetRank">1</data>
      <data key="v_correctedPValue">1</data>
      <data key="v_adjustedPValue">0.000159640519592135</data>
    </node>
    <node id="n2">
      <data key="v_name">map00030</data>
      <data key="v_description">Pentose phosphate pathway</data>
      <data key="v_database">KEGG</data>
      <data key="v_pValue">0.00444111642827171</data>
      <data key="v_pp">0.573871346709587</data>
      <data key="v_size">120</data>
      <data key="v_nSignificant">0</data>
      <data key="v_setRank">0.0152025196660671</data>
      <data key="v_pSetRank">0.00394482439430341</data>
      <data key="v_correctedPValue">0.266764879882144</data>
      <data key="v_adjustedPValue">0.000159640519592135</data>
    </node>
    <node id="n3">
      <data key="v_name">map00040</data>
      <data key="v_description">Pentose and glucuronate interconversions</data>
      <data key="v_database">KEGG</data>
      <data key="v_pValue">0.430600137253916</data>
      <data key="v_pp">0.0227831239731258</data>
      <data key="v_size">147</data>
      <data key="v_nSignificant">0</data>
      <data key="v_setRank">0.00136279850907848</data>
      <data key="v_pSetRank">1</data>
      <data key="v_correctedPValue">0.948892198527429</data>
      <data key="v_adjustedPValue">0.000159640519592135</data>
    </node>
    <node id="n4">
      <data key="v_name">map00051</data>
      <data key="v_description">Fructose and mannose metabolism</data>
      <data key="v_database">KEGG</data>
      <data key="v_pValue">0.298853486906543</data>
      <data key="v_pp">0.317750689774727</data>
      <data key="v_size">166</data>
      <data key="v_nSignificant">0</data>
      <data key="v_setRank">0.00230762200450211</data>
      <data key="v_pSetRank">1</data>
      <data key="v_correctedPValue">0.481115457372071</data>
      <data key="v_adjustedPValue">0.000159640519592135</data>
    </node>
    <node id="n5">
      <data key="v_name">map00052</data>
      <data key="v_description">Galactose metabolism</data>
      <data key="v_database">KEGG</data>
      <data key="v_pValue">0.140161830813604</data>
      <data key="v_pp">0.237501896818316</data>
      <data key="v_size">124</data>
      <data key="v_nSignificant">0</data>
      <data key="v_setRank">0.00594748441555696</data>
      <data key="v_pSetRank">1</data>
      <data key="v_correctedPValue">0.578759460562127</data>
      <data key="v_adjustedPValue">0.000159640519592135</data>
    </node>
    <node id="n6">
      <data key="v_name">map00053</data>
      <data key="v_description">Ascorbate and aldarate metabolism</data>
      <data key="v_database">KEGG</data>
      <data key="v_pValue">0.100549832135232</data>
      <data key="v_pp">0.0537786683169019</data>
      <data key="v_size">119</data>
      <data key="v_nSignificant">0</data>
      <data key="v_setRank">0.00316226968732416</data>
      <data key="v_pSetRank">1</data>
      <data key="v_correctedPValue">0.883530063573448</data>
      <data key="v_adjustedPValue">0.000159640519592135</data>
    </node>
    <node id="n7">
      <data key="v_name">map00061</data>
      <data key="v_description">Fatty acid biosynthesis</data>
      <data key="v_database">KEGG</data>
      <data key="v_pValue">0.217716394022095</data>
      <data key="v_pp">0.322395081241127</data>
      <data key="v_size">97</data>
      <data key="v_nSignificant">0</data>
      <data key="v_setRank">0.00578132735161188</data>
      <data key="v_pSetRank">1</data>
      <data key="v_correctedPValue">0.47599777072124</data>
      <data key="v_adjustedPValue">0.000159640519592135</data>
    </node>
    <node id="n8">
      <data key="v_name">map00062</data>
      <data key="v_description">Fatty acid elongation</data>
      <data key="v_database">KEGG</data>
      <data key="v_pValue">1</data>
      <data key="v_pp">-0</data>
      <data key="v_size">64</data>
      <data key="v_nSignificant">0</data>
      <data key="v_setRank">0.0011929872683393</data>
      <data key="v_pSetRank">1</data>
      <data key="v_correctedPValue">1</data>
      <data key="v_adjustedPValue">0.000159640519592135</data>
    </node>
    <node id="n9">
      <data key="v_name">map00071</data>
      <data key="v_description">Fatty acid degradation</data>
      <data key="v_database">KEGG</data>
      <data key="v_pValue">0.458874458874459</data>
      <data key="v_pp">-0</data>
      <data key="v_size">109</data>
      <data key="v_nSignificant">0</data>
      <data key="v_setRank">0.0033760391766196</data>
      <data key="v_pSetRank">1</data>
      <data key="v_correctedPValue">1</data>
      <data key="v_adjustedPValue">0.000159640519592135</data>
    </node>
    <node id="n10">
      <data key="v_name">map00073</data>
      <data key="v_description">Cutin, suberine and wax biosynthesis</data>
      <data key="v_database">KEGG</data>
      <data key="v_pValue">1</data>
      <data key="v_pp">-0</data>
      <data key="v_size">41</data>
      <data key="v_nSignificant">0</data>
      <data key="v_setRank">0.00102301569570625</data>
      <data key="v_pSetRank">1</data>
      <data key="v_correctedPValue">1</data>
      <data key="v_adjustedPValue">0.000159640519592135</data>
    </node>
    <node id="n11">
      <data key="v_name">map00100</data>
      <data key="v_description">Steroid biosynthesis</data>
      <data key="v_database">KEGG</data>
      <data key="v_pValue">1</data>
      <data key="v_pp">-0</data>
      <data key="v_size">91</data>
      <data key="v_nSignificant">0</data>
      <data key="v_setRank">0.00145448684604632</data>
      <data key="v_pSetRank">1</data>
      <data key="v_correctedPValue">1</data>
      <data key="v_adjustedPValue">0.000159640519592135</data>
    </node>
    <node id="n12">
      <data key="v_name">map00130</data>
      <data key="v_description">Ubiquinone and other terpenoid-quinone biosynthesis</data>
      <data key="v_database">KEGG</data>
      <data key="v_pValue">0.866499795242558</data>
      <data key="v_pp">-0</data>
      <data key="v_size">130</data>
      <data key="v_nSignificant">0</data>
      <data key="v_setRank">0.0010633929325639</data>
      <data key="v_pSetRank">1</data>
      <data key="v_correctedPValue">1</data>
      <data key="v_adjustedPValue">0.000159640519592135</data>
    </node>
    <node id="n13">
      <data key="v_name">map00140</data>
      <data key="v_description">Steroid hormone biosynthesis</data>
      <data key="v_database">KEGG</data>
      <data key="v_pValue">0.435064935064935</data>
      <data key="v_pp">0.361445918135637</data>
      <data key="v_size">146</data>
      <data key="v_nSignificant">0</data>
      <data key="v_setRank">0.00181351310962673</data>
      <data key="v_pSetRank">1</data>
      <data key="v_correctedPValue">0.435064935064935</data>
      <data key="v_adjustedPValue">0.000159640519592135</data>
    </node>
    <node id="n14">
      <data key="v_name">map00190</data>
      <data key="v_description">Oxidative phosphorylation</data>
      <data key="v_database">KEGG</data>
      <data key="v_pValue">0.000414952592004687</data>
      <data key="v_pp">3.38200151824419</data>
      <data key="v_size">239</data>
      <data key="v_nSignificant">0</data>
      <data key="v_setRank">0.034908344452264</data>
      <data key="v_pSetRank">1.02412041058724e-08</data>
      <data key="v_correctedPValue">0.000414952592004687</data>
      <data key="v_adjustedPValue">0.000159640519592135</data>
    </node>
    <node id="n15">
      <data key="v_name">map00220</data>
      <data key="v_description">Arginine biosynthesis</data>
      <data key="v_database">KEGG</data>
      <data key="v_pValue">0.232170446481993</data>
      <data key="v_pp">0.345863779718455</data>
      <data key="v_size">83</data>
      <data key="v_nSignificant">0</data>
      <data key="v_setRank">0.00348232950722395</data>
      <data key="v_pSetRank">1</data>
      <data key="v_correctedPValue">0.450958129341767</data>
      <data key="v_adjustedPValue">0.000159640519592135</data>
    </node>
    <node id="n16">
      <data key="v_name">map00230</data>
      <data key="v_description">Purine metabolism</data>
      <data key="v_database">KEGG</data>
      <data key="v_pValue">0.000605215891313054</data>
      <data key="v_pp">3.21808967711455</data>
      <data key="v_size">318</data>
      <data key="v_nSignificant">0</data>
      <data key="v_setRank">0.0274621568330806</data>
      <data key="v_pSetRank">7.20312614955908e-07</data>
      <data key="v_correctedPValue">0.000605215891313054</data>
      <data key="v_adjustedPValue">0.000159640519592135</data>
    </node>
    <node id="n17">
      <data key="v_name">map00232</data>
      <data key="v_description">Caffeine metabolism</data>
      <data key="v_database">KEGG</data>
      <data key="v_pValue">0.869470904461002</data>
      <data key="v_pp">-0</data>
      <data key="v_size">38</data>
      <data key="v_nSignificant">0</data>
      <data key="v_setRank">0.000934735153437186</data>
      <data key="v_pSetRank">1</data>
      <data key="v_correctedPValue">1</data>
      <data key="v_adjustedPValue">0.000159640519592135</data>
    </node>
    <node id="n18">
      <data key="v_name">map00240</data>
      <data key="v_description">Pyrimidine metabolism</data>
      <data key="v_database">KEGG</data>
      <data key="v_pValue">0.0133178008925521</data>
      <data key="v_pp">0.682962160853782</data>
      <data key="v_size">174</data>
      <data key="v_nSignificant">0</data>
      <data key="v_setRank">0.0146655457725348</data>
      <data key="v_pSetRank">0.00609299334267345</data>
      <data key="v_correctedPValue">0.207509430809279</data>
      <data key="v_adjustedPValue">0.000159640519592135</data>
    </node>
    <node id="n19">
      <data key="v_name">map00250</data>
      <data key="v_description">Alanine, aspartate and glutamate metabolism</data>
      <data key="v_database">KEGG</data>
      <data key="v_pValue">0.00884739425933275</data>
      <data key="v_pp">0.675969100781442</data>
      <data key="v_size">98</data>
      <data key="v_nSignificant">0</data>
      <data key="v_setRank">0.0556345938900426</data>
      <data key="v_pSetRank">7.4136878997781e-13</data>
      <data key="v_correctedPValue">0.210877818011478</data>
      <data key="v_adjustedPValue">0.000159640519592135</data>
    </node>
    <node id="n20">
      <data key="v_name">map00253</data>
      <data key="v_description">Tetracycline biosynthesis</data>
      <data key="v_database">KEGG</data>
      <data key="v_pValue">1</data>
      <data key="v_pp">-0</data>
      <data key="v_size">38</data>
      <data key="v_nSignificant">0</data>
      <data key="v_setRank">0.00144521738910807</data>
      <data key="v_pSetRank">1</data>
      <data key="v_correctedPValue">1</data>
      <data key="v_adjustedPValue">0.000159640519592135</data>
    </node>
    <node id="n21">
      <data key="v_name">map00254</data>
      <data key="v_description">Aflatoxin biosynthesis</data>
      <data key="v_database">KEGG</data>
      <data key="v_pValue">1</data>
      <data key="v_pp">-0</data>
      <data key="v_size">47</data>
      <data key="v_nSignificant">0</data>
      <data key="v_setRank">0.00104795494889727</data>
      <data key="v_pSetRank">1</data>
      <data key="v_correctedPValue">1</data>
      <data key="v_adjustedPValue">0.000159640519592135</data>
    </node>
    <node id="n22">
      <data key="v_name">map00260</data>
      <data key="v_description">Glycine, serine and threonine metabolism</data>
      <data key="v_database">KEGG</data>
      <data key="v_pValue">0.531330560319008</data>
      <data key="v_pp">0.0984876338519507</data>
      <data key="v_size">157</data>
      <data key="v_nSignificant">0</data>
      <data key="v_setRank">0.00126665539410748</data>
      <data key="v_pSetRank">1</data>
      <data key="v_correctedPValue">0.797099186955627</data>
      <data key="v_adjustedPValue">0.000159640519592135</data>
    </node>
    <node id="n23">
      <data key="v_name">map00261</data>
      <data key="v_description">Monobactam biosynthesis</data>
      <data key="v_database">KEGG</data>
      <data key="v_pValue">0.21872340270701</data>
      <data key="v_pp">0.182624337833645</data>
      <data key="v_size">67</data>
      <data key="v_nSignificant">0</data>
      <data key="v_setRank">0.00255604943673677</data>
      <data key="v_pSetRank">1</data>
      <data key="v_correctedPValue">0.656713073629381</data>
      <data key="v_adjustedPValue">0.000159640519592135</data>
    </node>
    <node id="n24">
      <data key="v_name">map00270</data>
      <data key="v_description">Cysteine and methionine metabolism</data>
      <data key="v_database">KEGG</data>
      <data key="v_pValue">0.0420980528455746</data>
      <data key="v_pp">0.660217738903216</data>
      <data key="v_size">189</data>
      <data key="v_nSignificant">0</data>
      <data key="v_setRank">0.0165373103435062</data>
      <data key="v_pSetRank">0.00136583843738758</data>
      <data key="v_correctedPValue">0.218666503755114</data>
      <data key="v_adjustedPValue">0.000159640519592135</data>
    </node>
    <node id="n25">
      <data key="v_name">map00280</data>
      <data key="v_description">Valine, leucine and isoleucine degradation</data>
      <data key="v_database">KEGG</data>
      <data key="v_pValue">0.350212780605368</data>
      <data key="v_pp">0.0343638638505369</data>
      <data key="v_size">111</data>
      <data key="v_nSignificant">0</data>
      <data key="v_setRank">0.00283606717234239</data>
      <data key="v_pSetRank">1</data>
      <data key="v_correctedPValue">0.923923760856704</data>
      <data key="v_adjustedPValue">0.000159640519592135</data>
    </node>
    <node id="n26">
      <data key="v_name">map00290</data>
      <data key="v_description">Valine, leucine and isoleucine biosynthesis</data>
      <data key="v_database">KEGG</data>
      <data key="v_pValue">0.164144742778654</data>
      <data key="v_pp">-0</data>
      <data key="v_size">42</data>
      <data key="v_nSignificant">0</data>
      <data key="v_setRank">0.0030330506108434</data>
      <data key="v_pSetRank">1</data>
      <data key="v_correctedPValue">1</data>
      <data key="v_adjustedPValue">0.000159640519592135</data>
    </node>
    <node id="n27">
      <data key="v_name">map00300</data>
      <data key="v_description">Lysine biosynthesis</data>
      <data key="v_database">KEGG</data>
      <data key="v_pValue">0.0651011041726805</data>
      <data key="v_pp">0.80720415899606</data>
      <data key="v_size">83</data>
      <data key="v_nSignificant">0</data>
      <data key="v_setRank">0.00574459271647436</data>
      <data key="v_pSetRank">1</data>
      <data key="v_correctedPValue">0.155881953968749</data>
      <data key="v_adjustedPValue">0.000159640519592135</data>
    </node>
    <node id="n28">
      <data key="v_name">map00310</data>
      <data key="v_description">Lysine degradation</data>
      <data key="v_database">KEGG</data>
      <data key="v_pValue">0.916015134456018</data>
      <data key="v_pp">0.0189651259161074</data>
      <data key="v_size">148</data>
      <data key="v_nSignificant">0</data>
      <data key="v_setRank">0.00127635235066899</data>
      <data key="v_pSetRank">1</data>
      <data key="v_correctedPValue">0.957270937587274</data>
      <data key="v_adjustedPValue">0.000159640519592135</data>
    </node>
    <node id="n29">
      <data key="v_name">map00330</data>
      <data key="v_description">Arginine and proline metabolism</data>
      <data key="v_database">KEGG</data>
      <data key="v_pValue">0.194937803950566</data>
      <data key="v_pp">0.319988293359601</data>
      <data key="v_size">176</data>
      <data key="v_nSignificant">0</data>
      <data key="v_setRank">0.00238980726802279</data>
      <data key="v_pSetRank">1</data>
      <data key="v_correctedPValue">0.478642994227053</data>
      <data key="v_adjustedPValue">0.000159640519592135</data>
    </node>
    <node id="n30">
      <data key="v_name">map00331</data>
      <data key="v_description">Clavulanic acid biosynthesis</data>
      <data key="v_database">KEGG</data>
      <data key="v_pValue">0.5</data>
      <data key="v_pp">-0</data>
      <data key="v_size">15</data>
      <data key="v_nSignificant">0</data>
      <data key="v_setRank">0.000934735153437186</data>
      <data key="v_pSetRank">1</data>
      <data key="v_correctedPValue">1</data>
      <data key="v_adjustedPValue">0.000159640519592135</data>
    </node>
    <node id="n31">
      <data key="v_name">map00332</data>
      <data key="v_description">Carbapenem biosynthesis</data>
      <data key="v_database">KEGG</data>
      <data key="v_pValue">0.82626700847959</data>
      <data key="v_pp">-0</data>
      <data key="v_size">51</data>
      <data key="v_nSignificant">0</data>
      <data key="v_setRank">0.000934735153437186</data>
      <data key="v_pSetRank">1</data>
      <data key="v_correctedPValue">1</data>
      <data key="v_adjustedPValue">0.000159640519592135</data>
    </node>
    <node id="n32">
      <data key="v_name">map00333</data>
      <data key="v_description">Prodigiosin biosynthesis</data>
      <data key="v_database">KEGG</data>
      <data key="v_pValue">0.493492530293436</data>
      <data key="v_pp">0.0413926851582251</data>
      <data key="v_size">38</data>
      <data key="v_nSignificant">0</data>
      <data key="v_setRank">0.00114708271236267</data>
      <data key="v_pSetRank">1</data>
      <data key="v_correctedPValue">0.909090909090909</data>
      <data key="v_adjustedPValue">0.000159640519592135</data>
    </node>
    <node id="n33">
      <data key="v_name">map00340</data>
      <data key="v_description">Histidine metabolism</data>
      <data key="v_database">KEGG</data>
      <data key="v_pValue">0.899979858579327</data>
      <data key="v_pp">0.0342498253575026</data>
      <data key="v_size">94</data>
      <data key="v_nSignificant">0</data>
      <data key="v_setRank">0.000978131133359932</data>
      <data key="v_pSetRank">1</data>
      <data key="v_correctedPValue">0.924166399693337</data>
      <data key="v_adjustedPValue">0.000159640519592135</data>
    </node>
    <node id="n34">
      <data key="v_name">map00350</data>
      <data key="v_description">Tyrosine metabolism</data>
      <data key="v_database">KEGG</data>
      <data key="v_pValue">0.630494497794984</data>
      <data key="v_pp">0.0998194894864329</data>
      <data key="v_size">162</data>
      <data key="v_nSignificant">0</data>
      <data key="v_setRank">0.0021991434163149</data>
      <data key="v_pSetRank">1</data>
      <data key="v_correctedPValue">0.794658458583763</data>
      <data key="v_adjustedPValue">0.000159640519592135</data>
    </node>
    <node id="n35">
      <data key="v_name">map00360</data>
      <data key="v_description">Phenylalanine metabolism</data>
      <data key="v_database">KEGG</data>
      <data key="v_pValue">0.957132527631443</data>
      <data key="v_pp">0.00946185821148845</data>
      <data key="v_size">123</data>
      <data key="v_nSignificant">0</data>
      <data key="v_setRank">0.00119255098188666</data>
      <data key="v_pSetRank">1</data>
      <data key="v_correctedPValue">0.978448883004198</data>
      <data key="v_adjustedPValue">0.000159640519592135</data>
    </node>
    <node id="n36">
      <data key="v_name">map00361</data>
      <data key="v_description">Chlorocyclohexane and chlorobenzene degradation</data>
      <data key="v_database">KEGG</data>
      <data key="v_pValue">0.749359100769079</data>
      <data key="v_pp">-0</data>
      <data key="v_size">124</data>
      <data key="v_nSignificant">0</data>
      <data key="v_setRank">0.00195091537982236</data>
      <data key="v_pSetRank">1</data>
      <data key="v_correctedPValue">1</data>
      <data key="v_adjustedPValue">0.000159640519592135</data>
    </node>
    <node id="n37">
      <data key="v_name">map00362</data>
      <data key="v_description">Benzoate degradation</data>
      <data key="v_database">KEGG</data>
      <data key="v_pValue">0.510822510822511</data>
      <data key="v_pp">-0</data>
      <data key="v_size">178</data>
      <data key="v_nSignificant">0</data>
      <data key="v_setRank">0.00352343379457933</data>
      <data key="v_pSetRank">1</data>
      <data key="v_correctedPValue">1</data>
      <data key="v_adjustedPValue">0.000159640519592135</data>
    </node>
    <node id="n38">
      <data key="v_name">map00363</data>
      <data key="v_description">Bisphenol degradation</data>
      <data key="v_database">KEGG</data>
      <data key="v_pValue">1</data>
      <data key="v_pp">-0</data>
      <data key="v_size">27</data>
      <data key="v_nSignificant">0</data>
      <data key="v_setRank">0.000934735153437186</data>
      <data key="v_pSetRank">1</data>
      <data key="v_correctedPValue">1</data>
      <data key="v_adjustedPValue">0.000159640519592135</data>
    </node>
    <node id="n39">
      <data key="v_name">map00364</data>
      <data key="v_description">Fluorobenzoate degradation</data>
      <data key="v_database">KEGG</data>
      <data key="v_pValue">0.510822510822511</data>
      <data key="v_pp">-0</data>
      <data key="v_size">50</data>
      <data key="v_nSignificant">0</data>
      <data key="v_setRank">0.00174078077790111</data>
      <data key="v_pSetRank">1</data>
      <data key="v_correctedPValue">1</data>
      <data key="v_adjustedPValue">0.000159640519592135</data>
    </node>
    <node id="n40">
      <data key="v_name">map00380</data>
      <data key="v_description">Tryptophan metabolism</data>
      <data key="v_database">KEGG</data>
      <data key="v_pValue">0.830211003746796</data>
      <data key="v_pp">-0</data>
      <data key="v_size">163</data>
      <data key="v_nSignificant">0</data>
      <data key="v_setRank">0.00143300544592436</data>
      <data key="v_pSetRank">1</data>
      <data key="v_correctedPValue">1</data>
      <data key="v_adjustedPValue">0.000159640519592135</data>
    </node>
    <node id="n41">
      <data key="v_name">map00400</data>
      <data key="v_description">Phenylalanine, tyrosine and tryptophan biosynthesis</data>
      <data key="v_database">KEGG</data>
      <data key="v_pValue">0.441833757954741</data>
      <data key="v_pp">-0</data>
      <data key="v_size">106</data>
      <data key="v_nSignificant">0</data>
      <data key="v_setRank">0.00281153346452</data>
      <data key="v_pSetRank">1</data>
      <data key="v_correctedPValue">1</data>
      <data key="v_adjustedPValue">0.000159640519592135</data>
    </node>
    <node id="n42">
      <data key="v_name">map00401</data>
      <data key="v_description">Novobiocin biosynthesis</data>
      <data key="v_database">KEGG</data>
      <data key="v_pValue">0.630494497794984</data>
      <data key="v_pp">-0</data>
      <data key="v_size">62</data>
      <data key="v_nSignificant">0</data>
      <data key="v_setRank">0.00116287064211229</data>
      <data key="v_pSetRank">1</data>
      <data key="v_correctedPValue">1</data>
      <data key="v_adjustedPValue">0.000159640519592135</data>
    </node>
    <node id="n43">
      <data key="v_name">map00402</data>
      <data key="v_description">Benzoxazinoid biosynthesis</data>
      <data key="v_database">KEGG</data>
      <data key="v_pValue">0.707792207792208</data>
      <data key="v_pp">0.150094222895839</data>
      <data key="v_size">17</data>
      <data key="v_nSignificant">0</data>
      <data key="v_setRank">0.000934735153437186</data>
      <data key="v_pSetRank">1</data>
      <data key="v_correctedPValue">0.707792207792208</data>
      <data key="v_adjustedPValue">0.000159640519592135</data>
    </node>
    <node id="n44">
      <data key="v_name">map00405</data>
      <data key="v_description">Phenazine biosynthesis</data>
      <data key="v_database">KEGG</data>
      <data key="v_pValue">0.705374163074814</data>
      <data key="v_pp">-0</data>
      <data key="v_size">47</data>
      <data key="v_nSignificant">0</data>
      <data key="v_setRank">0.000934735153437186</data>
      <data key="v_pSetRank">1</data>
      <data key="v_correctedPValue">1</data>
      <data key="v_adjustedPValue">0.000159640519592135</data>
    </node>
    <node id="n45">
      <data key="v_name">map00410</data>
      <data key="v_description">beta-Alanine metabolism</data>
      <data key="v_database">KEGG</data>
      <data key="v_pValue">0.844314828809783</data>
      <data key="v_pp">0.0172590054415057</data>
      <data key="v_size">77</data>
      <data key="v_nSignificant">0</data>
      <data key="v_setRank">0.00164013507384338</data>
      <data key="v_pSetRank">1</data>
      <data key="v_correctedPValue">0.961038961038961</data>
      <data key="v_adjustedPValue">0.000159640519592135</data>
    </node>
    <node id="n46">
      <data key="v_name">map00430</data>
      <data key="v_description">Taurine and hypotaurine metabolism</data>
      <data key="v_database">KEGG</data>
      <data key="v_pValue">0.531200031575285</data>
      <data key="v_pp">0.0620531085455532</data>
      <data key="v_size">53</data>
      <data key="v_nSignificant">0</data>
      <data key="v_setRank">0.00229251667394548</data>
      <data key="v_pSetRank">1</data>
      <data key="v_correctedPValue">0.866855864120789</data>
      <data key="v_adjustedPValue">0.000159640519592135</data>
    </node>
    <node id="n47">
      <data key="v_name">map00440</data>
      <data key="v_description">Phosphonate and phosphinate metabolism</data>
      <data key="v_database">KEGG</data>
      <data key="v_pValue">0.993506493506493</data>
      <data key="v_pp">-0</data>
      <data key="v_size">100</data>
      <data key="v_nSignificant">0</data>
      <data key="v_setRank">0.00125662588687359</data>
      <data key="v_pSetRank">1</data>
      <data key="v_correctedPValue">1</data>
      <data key="v_adjustedPValue">0.000159640519592135</data>
    </node>
    <node id="n48">
      <data key="v_name">map00450</data>
      <data key="v_description">Selenocompound metabolism</data>
      <data key="v_database">KEGG</data>
      <data key="v_pValue">0.0758336003066631</data>
      <data key="v_pp">1.12013832478359</data>
      <data key="v_size">60</data>
      <data key="v_nSignificant">0</data>
      <data key="v_setRank">0.00169057891714673</data>
      <data key="v_pSetRank">1</data>
      <data key="v_correctedPValue">0.0758336003066631</data>