<?xml version="1.0" encoding="UTF-8"?>
<graphml xmlns="http://graphml.graphdrawing.org/xmlns"
         xmlns:xsi="http://www.w3.org/2001/XMLSchema-instance"
         xsi:schemaLocation="http://graphml.graphdrawing.org/xmlns
         http://graphml.graphdrawing.org/xmlns/1.0/graphml.xsd">
<!-- Created by igraph -->
  <key id="v_name" for="node" attr.name="name" attr.type="string"/>
  <key id="v_description" for="node" attr.name="description" attr.type="string"/>
  <key id="v_database" for="node" attr.name="database" attr.type="string"/>
  <key id="v_pValue" for="node" attr.name="pValue" attr.type="double"/>
  <key id="v_pp" for="node" attr.name="pp" attr.type="double"/>
  <key id="v_size" for="node" attr.name="size" attr.type="double"/>
  <key id="v_nSignificant" for="node" attr.name="nSignificant" attr.type="double"/>
  <key id="v_setRank" for="node" attr.name="setRank" attr.type="double"/>
  <key id="v_pSetRank" for="node" attr.name="pSetRank" attr.type="double"/>
  <key id="v_correctedPValue" for="node" attr.name="correctedPValue" attr.type="double"/>
  <key id="v_adjustedPValue" for="node" attr.name="adjustedPValue" attr.type="double"/>
  <key id="e_type" for="edge" attr.name="type" attr.type="string"/>
  <key id="e_source_pDiff" for="edge" attr.name="source_pDiff" attr.type="double"/>
  <key id="e_source_ppDiff" for="edge" attr.name="source_ppDiff" attr.type="double"/>
  <key id="e_source_diffSize" for="edge" attr.name="source_diffSize" attr.type="double"/>
  <key id="e_sink_pDiff" for="edge" attr.name="sink_pDiff" attr.type="double"/>
  <key id="e_sink_ppDiff" for="edge" attr.name="sink_ppDiff" attr.type="double"/>
  <key id="e_sink_diffSize" for="edge" attr.name="sink_diffSize" attr.type="double"/>
  <key id="e_deltaP" for="edge" attr.name="deltaP" attr.type="double"/>
  <key id="e_intersectionSize" for="edge" attr.name="intersectionSize" attr.type="double"/>
  <key id="e_pIntersection" for="edge" attr.name="pIntersection" attr.type="double"/>
  <key id="e_ppIntersection" for="edge" attr.name="ppIntersection" attr.type="double"/>
  <key id="e_jaccard" for="edge" attr.name="jaccard" attr.type="double"/>
  <key id="e_significantJaccard" for="edge" attr.name="significantJaccard" attr.type="double"/>
  <key id="e_discardSource" for="edge" attr.name="discardSource" attr.type="boolean"/>
  <key id="e_discardSink" for="edge" attr.name="discardSink" attr.type="boolean"/>
  <graph id="G" edgedefault="directed">
    <node id="n0">
      <data key="v_name">map00010</data>
      <data key="v_description">Glycolysis / Gluconeogenesis</data>
      <data key="v_database">KEGG</data>
      <data key="v_pValue">0.0621565121401779</data>
      <data key="v_pp">0.605687069851227</data>
      <data key="v_size">137</data>
      <data key="v_nSignificant">0</data>
      <data key="v_setRank">0.0120991957467568</data>
      <data key="v_pSetRank">0.0526069702122097</data>
      <data key="v_correctedPValue">0.247920780315536</data>
      <data key="v_adjustedPValue">0.023743295032321</data>
    </node>
    <node id="n1">
      <data key="v_name">map00020</data>
      <data key="v_description">Citrate cycle (TCA cycle)</data>
      <data key="v_database">KEGG</data>
      <data key="v_pValue">0.00252471347995789</data>
      <data key="v_pp">-0</data>
      <data key="v_size">86</data>
      <data key="v_nSignificant">0</data>
      <data key="v_setRank">0.0426100908482159</data>
      <data key="v_pSetRank">2.01841125540807e-010</data>
      <data key="v_correctedPValue">1</data>
      <data key="v_adjustedPValue">0.023743295032321</data>
    </node>
    <node id="n2">
      <data key="v_name">map00030</data>
      <data key="v_description">Pentose phosphate pathway</data>
      <data key="v_database">KEGG</data>
      <data key="v_pValue">0.211511104806153</data>
      <data key="v_pp">0.405378095045727</data>
      <data key="v_size">120</data>
      <data key="v_nSignificant">0</data>
      <data key="v_setRank">0.00138582653758941</data>
      <data key="v_pSetRank">1</data>
      <data key="v_correctedPValue">0.393207601427872</data>
      <data key="v_adjustedPValue">0.023743295032321</data>
    </node>
    <node id="n3">
      <data key="v_name">map00040</data>
      <data key="v_description">Pentose and glucuronate interconversions</data>
      <data key="v_database">KEGG</data>
      <data key="v_pValue">0.158231910442051</data>
      <data key="v_pp">0.318966193613395</data>
      <data key="v_size">147</data>
      <data key="v_nSignificant">0</data>
      <data key="v_setRank">0.00120792714037443</data>
      <data key="v_pSetRank">1</data>
      <data key="v_correctedPValue">0.479770793540545</data>
      <data key="v_adjustedPValue">0.023743295032321</data>
    </node>
    <node id="n4">
      <data key="v_name">map00051</data>
      <data key="v_description">Fructose and mannose metabolism</data>
      <data key="v_database">KEGG</data>
      <data key="v_pValue">0.105558784081594</data>
      <data key="v_pp">0.801758719459584</data>
      <data key="v_size">166</data>
      <data key="v_nSignificant">0</data>
      <data key="v_setRank">0.00504395755785542</data>
      <data key="v_pSetRank">1</data>
      <data key="v_correctedPValue">0.157848798509172</data>
      <data key="v_adjustedPValue">0.023743295032321</data>
    </node>
    <node id="n5">
      <data key="v_name">map00052</data>
      <data key="v_description">Galactose metabolism</data>
      <data key="v_database">KEGG</data>
      <data key="v_pValue">0.143365668712508</data>
      <data key="v_pp">0.420170921149864</data>
      <data key="v_size">124</data>
      <data key="v_nSignificant">0</data>
      <data key="v_setRank">0.00825116518069405</data>
      <data key="v_pSetRank">1</data>
      <data key="v_correctedPValue">0.380039798234664</data>
      <data key="v_adjustedPValue">0.023743295032321</data>
    </node>
    <node id="n6">
      <data key="v_name">map00053</data>
      <data key="v_description">Ascorbate and aldarate metabolism</data>
      <data key="v_database">KEGG</data>
      <data key="v_pValue">0.0705342990564075</data>
      <data key="v_pp">0.479104943734448</data>
      <data key="v_size">119</data>
      <data key="v_nSignificant">0</data>
      <data key="v_setRank">0.00149315269154801</data>
      <data key="v_pSetRank">1</data>
      <data key="v_correctedPValue">0.33181426764142</data>
      <data key="v_adjustedPValue">0.023743295032321</data>
    </node>
    <node id="n7">
      <data key="v_name">map00061</data>
      <data key="v_description">Fatty acid biosynthesis</data>
      <data key="v_database">KEGG</data>
      <data key="v_pValue">0.379531941223679</data>
      <data key="v_pp">-0</data>
      <data key="v_size">97</data>
      <data key="v_nSignificant">0</data>
      <data key="v_setRank">0.00260664373453966</data>
      <data key="v_pSetRank">1</data>
      <data key="v_correctedPValue">1</data>
      <data key="v_adjustedPValue">0.023743295032321</data>
    </node>
    <node id="n8">
      <data key="v_name">map00062</data>
      <data key="v_description">Fatty acid elongation</data>
      <data key="v_database">KEGG</data>
      <data key="v_pValue">1</data>
      <data key="v_pp">-0</data>
      <data key="v_size">64</data>
      <data key="v_nSignificant">0</data>
      <data key="v_setRank">0.00105124340365259</data>
      <data key="v_pSetRank">1</data>
      <data key="v_correctedPValue">1</data>
      <data key="v_adjustedPValue">0.023743295032321</data>
    </node>
    <node id="n9">
      <data key="v_name">map00071</data>
      <data key="v_description">Fatty acid degradation</data>
      <data key="v_database">KEGG</data>
      <data key="v_pValue">0.379390674011005</data>
      <data key="v_pp">0.209917276834707</data>
      <data key="v_size">109</data>
      <data key="v_nSignificant">0</data>
      <data key="v_setRank">0.00347464610970754</data>
      <data key="v_pSetRank">1</data>
      <data key="v_correctedPValue">0.61671246029233</data>
      <data key="v_adjustedPValue">0.023743295032321</data>
    </node>
    <node id="n10">
      <data key="v_name">map00073</data>
      <data key="v_description">Cutin, suberine and wax biosynthesis</data>
      <data key="v_database">KEGG</data>
      <data key="v_pValue">1</data>
      <data key="v_pp">-0</data>
      <data key="v_size">41</data>
      <data key="v_nSignificant">0</data>
      <data key="v_setRank">0.000889497765355829</data>
      <data key="v_pSetRank">1</data>
      <data key="v_correctedPValue">1</data>
      <data key="v_adjustedPValue">0.023743295032321</data>
    </node>
    <node id="n11">
      <data key="v_name">map00100</data>
      <data key="v_description">Steroid biosynthesis</data>
      <data key="v_database">KEGG</data>
      <data key="v_pValue">1</data>
      <data key="v_pp">-0</data>
      <data key="v_size">91</data>
      <data key="v_nSignificant">0</data>
      <data key="v_setRank">0.00138409558530056</data>
      <data key="v_pSetRank">1</data>
      <data key="v_correctedPValue">1</data>
      <data key="v_adjustedPValue">0.023743295032321</data>
    </node>
    <node id="n12">
      <data key="v_name">map00130</data>
      <data key="v_description">Ubiquinone and other terpenoid-quinone biosynthesis</data>
      <data key="v_database">KEGG</data>
      <data key="v_pValue">0.393486437968637</data>
      <data key="v_pp">-0</data>
      <data key="v_size">130</data>
      <data key="v_nSignificant">0</data>
      <data key="v_setRank">0.000889497765355829</data>
      <data key="v_pSetRank">1</data>
      <data key="v_correctedPValue">1</data>
      <data key="v_adjustedPValue">0.023743295032321</data>
    </node>
    <node id="n13">
      <data key="v_name">map00140</data>
      <data key="v_description">Steroid hormone biosynthesis</data>
      <data key="v_database">KEGG</data>
      <data key="v_pValue">0.21722521271054</data>
      <data key="v_pp">0.663089768836487</data>
      <data key="v_size">146</data>
      <data key="v_nSignificant">0</data>
      <data key="v_setRank">0.0018945535852825</data>
      <data key="v_pSetRank">1</data>
      <data key="v_correctedPValue">0.21722521271054</data>
      <data key="v_adjustedPValue">0.023743295032321</data>
    </node>
    <node id="n14">
      <data key="v_name">map00190</data>
      <data key="v_description">Oxidative phosphorylation</data>
      <data key="v_database">KEGG</data>
      <data key="v_pValue">0.00535263547343725</data>
      <data key="v_pp">1.00890676127295</data>
      <data key="v_size">239</data>
      <data key="v_nSignificant">0</data>
      <data key="v_setRank">0.0275817897404582</data>
      <data key="v_pSetRank">6.4445185234771e-007</data>
      <data key="v_correctedPValue">0.0979700294789404</data>
      <data key="v_adjustedPValue">0.023743295032321</data>
    </node>
    <node id="n15">
      <data key="v_name">map00220</data>
      <data key="v_description">Arginine biosynthesis</data>
      <data key="v_database">KEGG</data>
      <data key="v_pValue">0.0031839793191453</data>
      <data key="v_pp">1.95172112256412</data>
      <data key="v_size">83</data>
      <data key="v_nSignificant">0</data>
      <data key="v_setRank">0.0141343492705788</data>
      <data key="v_pSetRank">0.00925912241248429</data>
      <data key="v_correctedPValue">0.0111758065957377</data>
      <data key="v_adjustedPValue">0.023743295032321</data>
    </node>
    <node id="n16">
      <data key="v_name">map00230</data>
      <data key="v_description">Purine metabolism</data>
      <data key="v_database">KEGG</data>
      <data key="v_pValue">0.0515433159084833</data>
      <data key="v_pp">0.982751113000107</data>
      <data key="v_size">318</data>
      <data key="v_nSignificant">0</data>
      <data key="v_setRank">0.00650603066337817</data>
      <data key="v_pSetRank">1</data>
      <data key="v_correctedPValue">0.10405162977134</data>
      <data key="v_adjustedPValue">0.023743295032321</data>
    </node>
    <node id="n17">
      <data key="v_name">map00232</data>
      <data key="v_description">Caffeine metabolism</data>
      <data key="v_database">KEGG</data>
      <data key="v_pValue">0.510079592834575</data>
      <data key="v_pp">0.158530801149381</data>
      <data key="v_size">38</data>
      <data key="v_nSignificant">0</data>
      <data key="v_setRank">0.000889497765355829</data>
      <data key="v_pSetRank">1</data>
      <data key="v_correctedPValue">0.694175367477195</data>
      <data key="v_adjustedPValue">0.023743295032321</data>
    </node>
    <node id="n18">
      <data key="v_name">map00240</data>
      <data key="v_description">Pyrimidine metabolism</data>
      <data key="v_database">KEGG</data>
      <data key="v_pValue">0.0169542512072419</data>
      <data key="v_pp">0.533855038006285</data>
      <data key="v_size">174</data>
      <data key="v_nSignificant">0</data>
      <data key="v_setRank">0.00394533285130278</data>
      <data key="v_pSetRank">1</data>
      <data key="v_correctedPValue">0.292512858575956</data>
      <data key="v_adjustedPValue">0.023743295032321</data>
    </node>
    <node id="n19">
      <data key="v_name">map00250</data>
      <data key="v_description">Alanine, aspartate and glutamate metabolism</data>
      <data key="v_database">KEGG</data>
      <data key="v_pValue">7.1944433376913e-005</data>
      <data key="v_pp">1.20607895393894</data>
      <data key="v_size">98</data>
      <data key="v_nSignificant">0</data>
      <data key="v_setRank">0.062400946147968</data>
      <data key="v_pSetRank">5.06398382389358e-014</data>
      <data key="v_correctedPValue">0.0622187162403649</data>
      <data key="v_adjustedPValue">0.023743295032321</data>
    </node>
    <node id="n20">
      <data key="v_name">map00253</data>
      <data key="v_description">Tetracycline biosynthesis</data>
      <data key="v_database">KEGG</data>
      <data key="v_pValue">1</data>
      <data key="v_pp">-0</data>
      <data key="v_size">38</data>
      <data key="v_nSignificant">0</data>
      <data key="v_setRank">0.00137527473246078</data>
      <data key="v_pSetRank">1</data>
      <data key="v_correctedPValue">1</data>
      <data key="v_adjustedPValue">0.023743295032321</data>
    </node>
    <node id="n21">
      <data key="v_name">map00254</data>
      <data key="v_description">Aflatoxin biosynthesis</data>
      <data key="v_database">KEGG</data>
      <data key="v_pValue">1</data>
      <data key="v_pp">-0</data>
      <data key="v_size">47</data>
      <data key="v_nSignificant">0</data>
      <data key="v_setRank">0.000997238182184554</data>
      <data key="v_pSetRank">1</data>
      <data key="v_correctedPValue">1</data>
      <data key="v_adjustedPValue">0.023743295032321</data>
    </node>
    <node id="n22">
      <data key="v_name">map00260</data>
      <data key="v_description">Glycine, serine and threonine metabolism</data>
      <data key="v_database">KEGG</data>
      <data key="v_pValue">0.336006170239204</data>
      <data key="v_pp">0.258489408694214</data>
      <data key="v_size">157</data>
      <data key="v_nSignificant">0</data>
      <data key="v_setRank">0.00118510446741409</data>
      <data key="v_pSetRank">1</data>
      <data key="v_correctedPValue">0.55145565077782</data>
      <data key="v_adjustedPValue">0.023743295032321</data>
    </node>
    <node id="n23">
      <data key="v_name">map00261</data>
      <data key="v_description">Monobactam biosynthesis</data>
      <data key="v_database">KEGG</data>
      <data key="v_pValue">0.0943450918399862</data>
      <data key="v_pp">0.726553261949321</data>
      <data key="v_size">67</data>
      <data key="v_nSignificant">0</data>
      <data key="v_setRank">0.00399924548495708</data>
      <data key="v_pSetRank">1</data>
      <data key="v_correctedPValue">0.187692421795324</data>
      <data key="v_adjustedPValue">0.023743295032321</data>
    </node>
    <node id="n24">
      <data key="v_name">map00270</data>
      <data key="v_description">Cysteine and methionine metabolism</data>
      <data key="v_database">KEGG</data>
      <data key="v_pValue">0.11031707243388</data>
      <data key="v_pp">0.533410262449792</data>
      <data key="v_size">189</data>
      <data key="v_nSignificant">0</data>
      <data key="v_setRank">0.0044438768904185</data>
      <data key="v_pSetRank">1</data>
      <data key="v_correctedPValue">0.292812584266315</data>
      <data key="v_adjustedPValue">0.023743295032321</data>
    </node>
    <node id="n25">
      <data key="v_name">map00280</data>
      <data key="v_description">Valine, leucine and isoleucine degradation</data>
      <data key="v_database">KEGG</data>
      <data key="v_pValue">0.631473053135103</data>
      <data key="v_pp">0.120275903251167</data>
      <data key="v_size">111</data>
      <data key="v_nSignificant">0</data>
      <data key="v_setRank">0.00118140835164357</data>
      <data key="v_pSetRank">1</data>
      <data key="v_correctedPValue">0.75809581078687</data>
      <data key="v_adjustedPValue">0.023743295032321</data>
    </node>
    <node id="n26">
      <data key="v_name">map00290</data>
      <data key="v_description">Valine, leucine and isoleucine biosynthesis</data>
      <data key="v_database">KEGG</data>
      <data key="v_pValue">0.208092614193788</data>
      <data key="v_pp">-0</data>
      <data key="v_size">42</data>
      <data key="v_nSignificant">0</data>
      <data key="v_setRank">0.0023289204427971</data>
      <data key="v_pSetRank">1</data>
      <data key="v_correctedPValue">1</data>
      <data key="v_adjustedPValue">0.023743295032321</data>
    </node>
    <node id="n27">
      <data key="v_name">map00300</data>
      <data key="v_description">Lysine biosynthesis</data>
      <data key="v_database">KEGG</data>
      <data key="v_pValue">0.567190770677171</data>
      <data key="v_pp">-0</data>
      <data key="v_size">83</data>
      <data key="v_nSignificant">0</data>
      <data key="v_setRank">0.000979570979676463</data>
      <data key="v_pSetRank">1</data>
      <data key="v_correctedPValue">1</data>
      <data key="v_adjustedPValue">0.023743295032321</data>
    </node>
    <node id="n28">
      <data key="v_name">map00310</data>
      <data key="v_description">Lysine degradation</data>
      <data key="v_database">KEGG</data>
      <data key="v_pValue">0.33607203925644</data>
      <data key="v_pp">0.274592582057084</data>
      <data key="v_size">148</data>
      <data key="v_nSignificant">0</data>
      <data key="v_setRank">0.00224529931842253</data>
      <data key="v_pSetRank">1</data>
      <data key="v_correctedPValue">0.531382708294202</data>
      <data key="v_adjustedPValue">0.023743295032321</data>
    </node>
    <node id="n29">
      <data key="v_name">map00330</data>
      <data key="v_description">Arginine and proline metabolism</data>
      <data key="v_database">KEGG</data>
      <data key="v_pValue">0.0846257521277969</data>
      <data key="v_pp">0.793654086846696</data>
      <data key="v_size">176</data>
      <data key="v_nSignificant">0</data>
      <data key="v_setRank">0.00323166954117617</data>
      <data key="v_pSetRank">1</data>
      <data key="v_correctedPValue">0.160822168269484</data>
      <data key="v_adjustedPValue">0.023743295032321</data>
    </node>
    <node id="n30">
      <data key="v_name">map00331</data>
      <data key="v_description">Clavulanic acid biosynthesis</data>
      <data key="v_database">KEGG</data>
      <data key="v_pValue">0.142212189616253</data>
      <data key="v_pp">-0</data>
      <data key="v_size">15</data>
      <data key="v_nSignificant">0</data>
      <data key="v_setRank">0.000889497765355829</data>
      <data key="v_pSetRank">1</data>
      <data key="v_correctedPValue">1</data>
      <data key="v_adjustedPValue">0.023743295032321</data>
    </node>
    <node id="n31">
      <data key="v_name">map00332</data>
      <data key="v_description">Carbapenem biosynthesis</data>
      <data key="v_database">KEGG</data>
      <data key="v_pValue">0.248306997742664</data>
      <data key="v_pp">-0</data>
      <data key="v_size">51</data>
      <data key="v_nSignificant">0</data>
      <data key="v_setRank">0.00114037026294535</data>
      <data key="v_pSetRank">1</data>
      <data key="v_correctedPValue">1</data>
      <data key="v_adjustedPValue">0.023743295032321</data>
    </node>
    <node id="n32">
      <data key="v_name">map00333</data>
      <data key="v_description">Prodigiosin biosynthesis</data>
      <data key="v_database">KEGG</data>
      <data key="v_pValue">0.595599726259665</data>
      <data key="v_pp">0.112377620166934</data>
      <data key="v_size">38</data>
      <data key="v_nSignificant">0</data>
      <data key="v_setRank">0.000889497765355829</data>
      <data key="v_pSetRank">1</data>
      <data key="v_correctedPValue">0.772009029345373</data>
      <data key="v_adjustedPValue">0.023743295032321</data>
    </node>
    <node id="n33">
      <data key="v_name">map00340</data>
      <data key="v_description">Histidine metabolism</data>
      <data key="v_database">KEGG</data>
      <data key="v_pValue">0.664067343557818</data>
      <data key="v_pp">0.0991902809421401</data>
      <data key="v_size">94</data>
      <data key="v_nSignificant">0</data>
      <data key="v_setRank">0.000931602465519226</data>
      <data key="v_pSetRank">1</data>
      <data key="v_correctedPValue">0.795810599109587</data>
      <data key="v_adjustedPValue">0.023743295032321</data>
    </node>
    <node id="n34">
      <data key="v_name">map00350</data>
      <data key="v_description">Tyrosine metabolism</data>
      <data key="v_database">KEGG</data>
      <data key="v_pValue">0.353039777704796</data>
      <data key="v_pp">0.0929416114131989</data>
      <data key="v_size">162</data>
      <data key="v_nSignificant">0</data>
      <data key="v_setRank">0.00225872119003575</data>
      <data key="v_pSetRank">1</data>
      <data key="v_correctedPValue">0.807343566007754</data>
      <data key="v_adjustedPValue">0.023743295032321</data>
    </node>
    <node id="n35">
      <data key="v_name">map00360</data>
      <data key="v_description">Phenylalanine metabolism</data>
      <data key="v_database">KEGG</data>
      <data key="v_pValue">0.0664674791801854</data>
      <data key="v_pp">0.567583383074912</data>
      <data key="v_size">123</data>
      <data key="v_nSignificant">0</data>
      <data key="v_setRank">0.00493583513335917</data>
      <data key="v_pSetRank">1</data>
      <data key="v_correctedPValue">0.270655350489359</data>
      <data key="v_adjustedPValue">0.023743295032321</data>
    </node>
    <node id="n36">
      <data key="v_name">map00361</data>
      <data key="v_description">Chlorocyclohexane and chlorobenzene degradation</data>
      <data key="v_database">KEGG</data>
      <data key="v_pValue">0.177635006077444</data>
      <data key="v_pp">-0</data>
      <data key="v_size">124</data>
      <data key="v_nSignificant">0</data>
      <data key="v_setRank">0.00183151237489993</data>
      <data key="v_pSetRank">1</data>
      <data key="v_correctedPValue">1</data>
      <data key="v_adjustedPValue">0.023743295032321</data>
    </node>
    <node id="n37">
      <data key="v_name">map00362</data>
      <data key="v_description">Benzoate degradation</data>
      <data key="v_database">KEGG</data>
      <data key="v_pValue">0.399021702794679</data>
      <data key="v_pp">0.0712158812954085</data>
      <data key="v_size">178</data>
      <data key="v_nSignificant">0</data>
      <data key="v_setRank">0.00251302538059607</data>
      <data key="v_pSetRank">1</data>
      <data key="v_correctedPValue">0.848758465011287</data>
      <data key="v_adjustedPValue">0.023743295032321</data>
    </node>
    <node id="n38">
      <data key="v_name">map00363</data>
      <data key="v_description">Bisphenol degradation</data>
      <data key="v_database">KEGG</data>
      <data key="v_pValue">1</data>
      <data key="v_pp">-0</data>
      <data key="v_size">27</data>
      <data key="v_nSignificant">0</data>
      <data key="v_setRank">0.000889497765355829</data>
      <data key="v_pSetRank">1</data>
      <data key="v_correctedPValue">1</data>
      <data key="v_adjustedPValue">0.023743295032321</data>
    </node>
    <node id="n39">
      <data key="v_name">map00364</data>
      <data key="v_description">Fluorobenzoate degradation</data>
      <data key="v_database">KEGG</data>
      <data key="v_pValue">0.155756207674944</data>
      <data key="v_pp">-0</data>
      <data key="v_size">50</data>
      <data key="v_nSignificant">0</data>
      <data key="v_setRank">0.00142779901661604</data>
      <data key="v_pSetRank">1</data>
      <data key="v_correctedPValue">1</data>
      <data key="v_adjustedPValue">0.023743295032321</data>
    </node>
    <node id="n40">
      <data key="v_name">map00380</data>
      <data key="v_description">Tryptophan metabolism</data>
      <data key="v_database">KEGG</data>
      <data key="v_pValue">0.751192089963264</data>
      <data key="v_pp">0.0630869576629576</data>
      <data key="v_size">163</data>
      <data key="v_nSignificant">0</data>
      <data key="v_setRank">0.00113930365148017</data>
      <data key="v_pSetRank">1</data>
      <data key="v_correctedPValue">0.864794745819842</data>
      <data key="v_adjustedPValue">0.023743295032321</data>
    </node>
    <node id="n41">
      <data key="v_name">map00400</data>
      <data key="v_description">Phenylalanine, tyrosine and tryptophan biosynthesis</data>
      <data key="v_database">KEGG</data>
      <data key="v_pValue">0.0289464096997151</data>
      <data key="v_pp">0.0273103955963268</data>
      <data key="v_size">106</data>
      <data key="v_nSignificant">0</data>
      <data key="v_setRank">0.00594822100607785</data>
      <data key="v_pSetRank">1</data>
      <data key="v_correctedPValue">0.939051918735892</data>
      <data key="v_adjustedPValue">0.023743295032321</data>
    </node>
    <node id="n42">
      <data key="v_name">map00401</data>
      <data key="v_description">Novobiocin biosynthesis</data>
      <data key="v_database">KEGG</data>
      <data key="v_pValue">0.126746375827689</data>
      <data key="v_pp">-0</data>
      <data key="v_size">62</data>
      <data key="v_nSignificant">0</data>
      <data key="v_setRank">0.00138404344786733</data>
      <data key="v_pSetRank">1</data>
      <data key="v_correctedPValue">1</data>
      <data key="v_adjustedPValue">0.023743295032321</data>
    </node>
    <node id="n43">
      <data key="v_name">map00402</data>
      <data key="v_description">Benzoxazinoid biosynthesis</data>
      <data key="v_database">KEGG</data>
      <data key="v_pValue">0.468831394339295</data>
      <data key="v_pp">0.328983314370919</data>
      <data key="v_size">17</data>
      <data key="v_nSignificant">0</data>
      <data key="v_setRank">0.000889497765355829</data>
      <data key="v_pSetRank">1</data>
      <data key="v_correctedPValue">0.468831394339295</data>
      <data key="v_adjustedPValue">0.023743295032321</data>
    </node>
    <node id="n44">
      <data key="v_name">map00405</data>
      <data key="v_description">Phenazine biosynthesis</data>
      <data key="v_database">KEGG</data>
      <data key="v_pValue">0.349887133182844</data>
      <data key="v_pp">-0</data>
      <data key="v_size">47</data>
      <data key="v_nSignificant">0</data>
      <data key="v_setRank">0.000889497765355829</data>
      <data key="v_pSetRank">1</data>
      <data key="v_correctedPValue">1</data>
      <data key="v_adjustedPValue">0.023743295032321</data>
    </node>
    <node id="n45">
      <data key="v_name">map00410</data>
      <data key="v_description">beta-Alanine metabolism</data>
      <data key="v_database">KEGG</data>
      <data key="v_pValue">0.458170996126602</data>
      <data key="v_pp">0.183799474889846</data>
      <data key="v_size">77</data>
      <data key="v_nSignificant">0</data>
      <data key="v_setRank">0.00147784238653529</data>
      <data key="v_pSetRank">1</data>
      <data key="v_correctedPValue">0.654938506486117</data>
      <data key="v_adjustedPValue">0.023743295032321</data>
    </node>
    <node id="n46">
      <data key="v_name">map00430</data>
      <data key="v_description">Taurine and hypotaurine metabolism</data>
      <data key="v_database">KEGG</data>
      <data key="v_pValue">0.312821459634152</data>
      <data key="v_pp">0.311879848228017</data>
      <data key="v_size">53</data>
      <data key="v_nSignificant">0</data>
      <data key="v_setRank">0.00175220479372069</data>
      <data key="v_pSetRank">1</data>
      <data key="v_correctedPValue">0.48766338823857</data>
      <data key="v_adjustedPValue">0.023743295032321</data>
    </node>
    <node id="n47">
      <data key="v_name">map00440</data>
      <data key="v_description">Phosphonate and phosphinate metabolism</data>
      <data key="v_database">KEGG</data>
      <data key="v_pValue">0.447179323196547</data>
      <data key="v_pp">-0</data>
      <data key="v_size">100</data>
      <data key="v_nSignificant">0</data>
      <data key="v_setRank">0.00106270088620032</data>
      <data key="v_pSetRank">1</data>
      <data key="v_correctedPValue">1</data>
      <data key="v_adjustedPValue">0.023743295032321</data>
    </node>
    <node id="n48">
      <data key="v_name">map00450</data>
      <data key="v_description">Selenocompound metabolism</data>
      <data key="v_database">KEGG</data>
      <data key="v_pValue">0.0301806462984283</data>
      <data key="v_pp">0.882738626124326</data>
      <data key="v_size">60</data>
      <data key="v_nSignificant">0</data>
      <data key="v_setRank">0.00305481060619501</data>
      <data key="v_pSetRank">1</data>
      <data key="v_correctedPValue">0.130997007241862</data>
      <data key="v_adjustedPValue">0.023743295032321</data>
    </node>