<?xml version="1.0" encoding="UTF-8"?>
<graphml xmlns="http://graphml.graphdrawing.org/xmlns"
         xmlns:xsi="http://www.w3.org/2001/XMLSchema-instance"
         xsi:schemaLocation="http://graphml.graphdrawing.org/xmlns
         http://graphml.graphdrawing.org/xmlns/1.0/graphml.xsd">
<!-- Created by igraph -->
  <key id="v_name" for="node" attr.name="name" attr.type="string"/>
  <key id="v_description" for="node" attr.name="description" attr.type="string"/>
  <key id="v_database" for="node" attr.name="database" attr.type="string"/>
  <key id="v_pValue" for="node" attr.name="pValue" attr.type="double"/>
  <key id="v_pp" for="node" attr.name="pp" attr.type="double"/>
  <key id="v_size" for="node" attr.name="size" attr.type="double"/>
  <key id="v_nSignificant" for="node" attr.name="nSignificant" attr.type="double"/>
  <key id="v_setRank" for="node" attr.name="setRank" attr.type="double"/>
  <key id="v_pSetRank" for="node" attr.name="pSetRank" attr.type="double"/>
  <key id="v_correctedPValue" for="node" attr.name="correctedPValue" attr.type="double"/>
  <key id="v_adjustedPValue" for="node" attr.name="adjustedPValue" attr.type="double"/>
  <key id="e_type" for="edge" attr.name="type" attr.type="string"/>
  <key id="e_source_pDiff" for="edge" attr.name="source_pDiff" attr.type="double"/>
  <key id="e_source_ppDiff" for="edge" attr.name="source_ppDiff" attr.type="double"/>
  <key id="e_source_diffSize" for="edge" attr.name="source_diffSize" attr.type="double"/>
  <key id="e_sink_pDiff" for="edge" attr.name="sink_pDiff" attr.type="double"/>
  <key id="e_sink_ppDiff" for="edge" attr.name="sink_ppDiff" attr.type="double"/>
  <key id="e_sink_diffSize" for="edge" attr.name="sink_diffSize" attr.type="double"/>
  <key id="e_deltaP" for="edge" attr.name="deltaP" attr.type="double"/>
  <key id="e_intersectionSize" for="edge" attr.name="intersectionSize" attr.type="double"/>
  <key id="e_pIntersection" for="edge" attr.name="pIntersection" attr.type="double"/>
  <key id="e_ppIntersection" for="edge" attr.name="ppIntersection" attr.type="double"/>
  <key id="e_jaccard" for="edge" attr.name="jaccard" attr.type="double"/>
  <key id="e_significantJaccard" for="edge" attr.name="significantJaccard" attr.type="double"/>
  <key id="e_discardSource" for="edge" attr.name="discardSource" attr.type="boolean"/>
  <key id="e_discardSink" for="edge" attr.name="discardSink" attr.type="boolean"/>
  <graph id="G" edgedefault="directed">
    <node id="n0">
      <data key="v_name">map00010</data>
      <data key="v_description">Glycolysis / Gluconeogenesis</data>
      <data key="v_database">KEGG</data>
      <data key="v_pValue">0.582501286574817</data>
      <data key="v_pp">0.0963018293192552</data>
      <data key="v_size">137</data>
      <data key="v_nSignificant">0</data>
      <data key="v_setRank">0.0015438566077355</data>
      <data key="v_pSetRank">1</data>
      <data key="v_correctedPValue">0.801121100564935</data>
      <data key="v_adjustedPValue">8.14095647861251e-009</data>
    </node>
    <node id="n1">
      <data key="v_name">map00020</data>
      <data key="v_description">Citrate cycle (TCA cycle)</data>
      <data key="v_database">KEGG</data>
      <data key="v_pValue">0.0617299705321188</data>
      <data key="v_pp">-0</data>
      <data key="v_size">86</data>
      <data key="v_nSignificant">0</data>
      <data key="v_setRank">0.00380190780454883</data>
      <data key="v_pSetRank">1</data>
      <data key="v_correctedPValue">1</data>
      <data key="v_adjustedPValue">8.14095647861251e-009</data>
    </node>
    <node id="n2">
      <data key="v_name">map00030</data>
      <data key="v_description">Pentose phosphate pathway</data>
      <data key="v_database">KEGG</data>
      <data key="v_pValue">0.304340236721078</data>
      <data key="v_pp">0.249393772907309</data>
      <data key="v_size">120</data>
      <data key="v_nSignificant">0</data>
      <data key="v_setRank">0.0013194475963024</data>
      <data key="v_pSetRank">1</data>
      <data key="v_correctedPValue">0.563126839640941</data>
      <data key="v_adjustedPValue">8.14095647861251e-009</data>
    </node>
    <node id="n3">
      <data key="v_name">map00040</data>
      <data key="v_description">Pentose and glucuronate interconversions</data>
      <data key="v_database">KEGG</data>
      <data key="v_pValue">0.0038068415070748</data>
      <data key="v_pp">1.75841726173383</data>
      <data key="v_size">147</data>
      <data key="v_nSignificant">0</data>
      <data key="v_setRank">0.00360424188336603</data>
      <data key="v_pSetRank">1</data>
      <data key="v_correctedPValue">0.0174414560630652</data>
      <data key="v_adjustedPValue">8.14095647861251e-009</data>
    </node>
    <node id="n4">
      <data key="v_name">map00051</data>
      <data key="v_description">Fructose and mannose metabolism</data>
      <data key="v_database">KEGG</data>
      <data key="v_pValue">0.64397290528068</data>
      <data key="v_pp">0.0741833814853273</data>
      <data key="v_size">166</data>
      <data key="v_nSignificant">0</data>
      <data key="v_setRank">0.000998192206808152</data>
      <data key="v_pSetRank">1</data>
      <data key="v_correctedPValue">0.842978733590514</data>
      <data key="v_adjustedPValue">8.14095647861251e-009</data>
    </node>
    <node id="n5">
      <data key="v_name">map00052</data>
      <data key="v_description">Galactose metabolism</data>
      <data key="v_database">KEGG</data>
      <data key="v_pValue">0.0561331586069453</data>
      <data key="v_pp">1.1263754976518</data>
      <data key="v_size">124</data>
      <data key="v_nSignificant">0</data>
      <data key="v_setRank">0.00614511351800535</data>
      <data key="v_pSetRank">1</data>
      <data key="v_correctedPValue">0.0747522901287462</data>
      <data key="v_adjustedPValue">8.14095647861251e-009</data>
    </node>
    <node id="n6">
      <data key="v_name">map00053</data>
      <data key="v_description">Ascorbate and aldarate metabolism</data>
      <data key="v_database">KEGG</data>
      <data key="v_pValue">0.01170539021223</data>
      <data key="v_pp">1.48669995425104</data>
      <data key="v_size">119</data>
      <data key="v_nSignificant">0</data>
      <data key="v_setRank">0.00603852937583051</data>
      <data key="v_pSetRank">1</data>
      <data key="v_correctedPValue">0.0326061893126582</data>
      <data key="v_adjustedPValue">8.14095647861251e-009</data>
    </node>
    <node id="n7">
      <data key="v_name">map00061</data>
      <data key="v_description">Fatty acid biosynthesis</data>
      <data key="v_database">KEGG</data>
      <data key="v_pValue">0.814883885903674</data>
      <data key="v_pp">-0</data>
      <data key="v_size">97</data>
      <data key="v_nSignificant">0</data>
      <data key="v_setRank">0.00156241888250581</data>
      <data key="v_pSetRank">1</data>
      <data key="v_correctedPValue">1</data>
      <data key="v_adjustedPValue">8.14095647861251e-009</data>
    </node>
    <node id="n8">
      <data key="v_name">map00062</data>
      <data key="v_description">Fatty acid elongation</data>
      <data key="v_database">KEGG</data>
      <data key="v_pValue">1</data>
      <data key="v_pp">-0</data>
      <data key="v_size">64</data>
      <data key="v_nSignificant">0</data>
      <data key="v_setRank">0.00117970276469971</data>
      <data key="v_pSetRank">1</data>
      <data key="v_correctedPValue">1</data>
      <data key="v_adjustedPValue">8.14095647861251e-009</data>
    </node>
    <node id="n9">
      <data key="v_name">map00071</data>
      <data key="v_description">Fatty acid degradation</data>
      <data key="v_database">KEGG</data>
      <data key="v_pValue">0.119558511663775</data>
      <data key="v_pp">0.468633144494144</data>
      <data key="v_size">109</data>
      <data key="v_nSignificant">0</data>
      <data key="v_setRank">0.00297382418647997</data>
      <data key="v_pSetRank">1</data>
      <data key="v_correctedPValue">0.339912280701754</data>
      <data key="v_adjustedPValue">8.14095647861251e-009</data>
    </node>
    <node id="n10">
      <data key="v_name">map00073</data>
      <data key="v_description">Cutin, suberine and wax biosynthesis</data>
      <data key="v_database">KEGG</data>
      <data key="v_pValue">1</data>
      <data key="v_pp">-0</data>
      <data key="v_size">41</data>
      <data key="v_nSignificant">0</data>
      <data key="v_setRank">0.000998192206808152</data>
      <data key="v_pSetRank">1</data>
      <data key="v_correctedPValue">1</data>
      <data key="v_adjustedPValue">8.14095647861251e-009</data>
    </node>
    <node id="n11">
      <data key="v_name">map00100</data>
      <data key="v_description">Steroid biosynthesis</data>
      <data key="v_database">KEGG</data>
      <data key="v_pValue">1</data>
      <data key="v_pp">-0</data>
      <data key="v_size">91</data>
      <data key="v_nSignificant">0</data>
      <data key="v_setRank">0.00155322866513543</data>
      <data key="v_pSetRank">1</data>
      <data key="v_correctedPValue">1</data>
      <data key="v_adjustedPValue">8.14095647861251e-009</data>
    </node>
    <node id="n12">
      <data key="v_name">map00130</data>
      <data key="v_description">Ubiquinone and other terpenoid-quinone biosynthesis</data>
      <data key="v_database">KEGG</data>
      <data key="v_pValue">0.367185794338112</data>
      <data key="v_pp">-0</data>
      <data key="v_size">130</data>
      <data key="v_nSignificant">0</data>
      <data key="v_setRank">0.000998192206808152</data>
      <data key="v_pSetRank">1</data>
      <data key="v_correctedPValue">1</data>
      <data key="v_adjustedPValue">8.14095647861251e-009</data>
    </node>
    <node id="n13">
      <data key="v_name">map00140</data>
      <data key="v_description">Steroid hormone biosynthesis</data>
      <data key="v_database">KEGG</data>
      <data key="v_pValue">0.139647194910353</data>
      <data key="v_pp">0.854967783537557</data>
      <data key="v_size">146</data>
      <data key="v_nSignificant">0</data>
      <data key="v_setRank">0.00169702770655811</data>
      <data key="v_pSetRank">1</data>
      <data key="v_correctedPValue">0.139647194910353</data>
      <data key="v_adjustedPValue">8.14095647861251e-009</data>
    </node>
    <node id="n14">
      <data key="v_name">map00190</data>
      <data key="v_description">Oxidative phosphorylation</data>
      <data key="v_database">KEGG</data>
      <data key="v_pValue">1.09052884420031e-005</data>
      <data key="v_pp">4.96236284295886</data>
      <data key="v_size">239</data>
      <data key="v_nSignificant">0</data>
      <data key="v_setRank">0.00414009380538647</data>
      <data key="v_pSetRank">1</data>
      <data key="v_correctedPValue">1.09052884420031e-005</data>
      <data key="v_adjustedPValue">8.14095647861251e-009</data>
    </node>
    <node id="n15">
      <data key="v_name">map00220</data>
      <data key="v_description">Arginine biosynthesis</data>
      <data key="v_database">KEGG</data>
      <data key="v_pValue">1.10318995957727e-005</data>
      <data key="v_pp">2.6139657325432</data>
      <data key="v_size">83</data>
      <data key="v_nSignificant">0</data>
      <data key="v_setRank">0.0126812950968158</data>
      <data key="v_pSetRank">0.124658944110235</data>
      <data key="v_correctedPValue">0.00243239592662629</data>
      <data key="v_adjustedPValue">8.14095647861251e-009</data>
    </node>
    <node id="n16">
      <data key="v_name">map00230</data>
      <data key="v_description">Purine metabolism</data>
      <data key="v_database">KEGG</data>
      <data key="v_pValue">0.0070676592190654</data>
      <data key="v_pp">1.64658598853686</data>
      <data key="v_size">318</data>
      <data key="v_nSignificant">0</data>
      <data key="v_setRank">0.0101880066410122</data>
      <data key="v_pSetRank">0.755352953870328</data>
      <data key="v_correctedPValue">0.0225638919540466</data>
      <data key="v_adjustedPValue">8.14095647861251e-009</data>
    </node>
    <node id="n17">
      <data key="v_name">map00232</data>
      <data key="v_description">Caffeine metabolism</data>
      <data key="v_database">KEGG</data>
      <data key="v_pValue">0.000431567327941071</data>
      <data key="v_pp">1.82064072804616</data>
      <data key="v_size">38</data>
      <data key="v_nSignificant">0</data>
      <data key="v_setRank">0.00338750322404289</data>
      <data key="v_pSetRank">1</data>
      <data key="v_correctedPValue">0.0151132989123621</data>
      <data key="v_adjustedPValue">8.14095647861251e-009</data>
    </node>
    <node id="n18">
      <data key="v_name">map00240</data>
      <data key="v_description">Pyrimidine metabolism</data>
      <data key="v_database">KEGG</data>
      <data key="v_pValue">0.00768787284824866</data>
      <data key="v_pp">1.18817605213554</data>
      <data key="v_size">174</data>
      <data key="v_nSignificant">0</data>
      <data key="v_setRank">0.00202270949053369</data>
      <data key="v_pSetRank">1</data>
      <data key="v_correctedPValue">0.0648371546637385</data>
      <data key="v_adjustedPValue">8.14095647861251e-009</data>
    </node>
    <node id="n19">
      <data key="v_name">map00250</data>
      <data key="v_description">Alanine, aspartate and glutamate metabolism</data>
      <data key="v_database">KEGG</data>
      <data key="v_pValue">0.0679621496542319</data>
      <data key="v_pp">0.379719897937614</data>
      <data key="v_size">98</data>
      <data key="v_nSignificant">0</data>
      <data key="v_setRank">0.00284730448621786</data>
      <data key="v_pSetRank">1</data>
      <data key="v_correctedPValue">0.417138333783182</data>
      <data key="v_adjustedPValue">8.14095647861251e-009</data>
    </node>
    <node id="n20">
      <data key="v_name">map00253</data>
      <data key="v_description">Tetracycline biosynthesis</data>
      <data key="v_database">KEGG</data>
      <data key="v_pValue">1</data>
      <data key="v_pp">-0</data>
      <data key="v_size">38</data>
      <data key="v_nSignificant">0</data>
      <data key="v_setRank">0.00154332992575125</data>
      <data key="v_pSetRank">1</data>
      <data key="v_correctedPValue">1</data>
      <data key="v_adjustedPValue">8.14095647861251e-009</data>
    </node>
    <node id="n21">
      <data key="v_name">map00254</data>
      <data key="v_description">Aflatoxin biosynthesis</data>
      <data key="v_database">KEGG</data>
      <data key="v_pValue">1</data>
      <data key="v_pp">-0</data>
      <data key="v_size">47</data>
      <data key="v_nSignificant">0</data>
      <data key="v_setRank">0.00111909823785779</data>
      <data key="v_pSetRank">1</data>
      <data key="v_correctedPValue">1</data>
      <data key="v_adjustedPValue">8.14095647861251e-009</data>
    </node>
    <node id="n22">
      <data key="v_name">map00260</data>
      <data key="v_description">Glycine, serine and threonine metabolism</data>
      <data key="v_database">KEGG</data>
      <data key="v_pValue">0.0863187468058059</data>
      <data key="v_pp">0.55244142749613</data>
      <data key="v_size">157</data>
      <data key="v_nSignificant">0</data>
      <data key="v_setRank">0.00452310629873526</data>
      <data key="v_pSetRank">1</data>
      <data key="v_correctedPValue">0.280258357550927</data>
      <data key="v_adjustedPValue">8.14095647861251e-009</data>
    </node>
    <node id="n23">
      <data key="v_name">map00261</data>
      <data key="v_description">Monobactam biosynthesis</data>
      <data key="v_database">KEGG</data>
      <data key="v_pValue">0.0011410602597501</data>
      <data key="v_pp">1.3058279856982</data>
      <data key="v_size">67</data>
      <data key="v_nSignificant">0</data>
      <data key="v_setRank">0.011429752967462</data>
      <data key="v_pSetRank">0.302896240965141</data>
      <data key="v_correctedPValue">0.0494506511139352</data>
      <data key="v_adjustedPValue">8.14095647861251e-009</data>
    </node>
    <node id="n24">
      <data key="v_name">map00270</data>
      <data key="v_description">Cysteine and methionine metabolism</data>
      <data key="v_database">KEGG</data>
      <data key="v_pValue">0.0878775773641052</data>
      <data key="v_pp">0.565465295749765</data>
      <data key="v_size">189</data>
      <data key="v_nSignificant">0</data>
      <data key="v_setRank">0.00239083078830728</data>
      <data key="v_pSetRank">1</data>
      <data key="v_correctedPValue">0.271978581411081</data>
      <data key="v_adjustedPValue">8.14095647861251e-009</data>
    </node>
    <node id="n25">
      <data key="v_name">map00280</data>
      <data key="v_description">Valine, leucine and isoleucine degradation</data>
      <data key="v_database">KEGG</data>
      <data key="v_pValue">0.0129554126117517</data>
      <data key="v_pp">0.351997732225691</data>
      <data key="v_size">111</data>
      <data key="v_nSignificant">0</data>
      <data key="v_setRank">0.00293303594694162</data>
      <data key="v_pSetRank">1</data>
      <data key="v_correctedPValue">0.44463358922552</data>
      <data key="v_adjustedPValue">8.14095647861251e-009</data>
    </node>
    <node id="n26">
      <data key="v_name">map00290</data>
      <data key="v_description">Valine, leucine and isoleucine biosynthesis</data>
      <data key="v_database">KEGG</data>
      <data key="v_pValue">0.312484275213834</data>
      <data key="v_pp">-0</data>
      <data key="v_size">42</data>
      <data key="v_nSignificant">0</data>
      <data key="v_setRank">0.00104125261460934</data>
      <data key="v_pSetRank">1</data>
      <data key="v_correctedPValue">1</data>
      <data key="v_adjustedPValue">8.14095647861251e-009</data>
    </node>
    <node id="n27">
      <data key="v_name">map00300</data>
      <data key="v_description">Lysine biosynthesis</data>
      <data key="v_database">KEGG</data>
      <data key="v_pValue">0.256102306200705</data>
      <data key="v_pp">0.230082768012092</data>
      <data key="v_size">83</data>
      <data key="v_nSignificant">0</data>
      <data key="v_setRank">0.00111098255501635</data>
      <data key="v_pSetRank">1</data>
      <data key="v_correctedPValue">0.588731443994602</data>
      <data key="v_adjustedPValue">8.14095647861251e-009</data>
    </node>
    <node id="n28">
      <data key="v_name">map00310</data>
      <data key="v_description">Lysine degradation</data>
      <data key="v_database">KEGG</data>
      <data key="v_pValue">0.00361128672617594</data>
      <data key="v_pp">1.16665847043684</data>
      <data key="v_size">148</data>
      <data key="v_nSignificant">0</data>
      <data key="v_setRank">0.00425610370122254</data>
      <data key="v_pSetRank">1</data>
      <data key="v_correctedPValue">0.068130492687519</data>
      <data key="v_adjustedPValue">8.14095647861251e-009</data>
    </node>
    <node id="n29">
      <data key="v_name">map00330</data>
      <data key="v_description">Arginine and proline metabolism</data>
      <data key="v_database">KEGG</data>
      <data key="v_pValue">2.69703150441192e-006</data>
      <data key="v_pp">2.9388649146509</data>
      <data key="v_size">176</data>
      <data key="v_nSignificant">0</data>
      <data key="v_setRank">0.0180404141286804</data>
      <data key="v_pSetRank">0.00371408732066887</data>
      <data key="v_correctedPValue">0.00115115839591495</data>
      <data key="v_adjustedPValue">8.14095647861251e-009</data>
    </node>
    <node id="n30">
      <data key="v_name">map00331</data>
      <data key="v_description">Clavulanic acid biosynthesis</data>
      <data key="v_database">KEGG</data>
      <data key="v_pValue">0.0877192982456142</data>
      <data key="v_pp">-0</data>
      <data key="v_size">15</data>
      <data key="v_nSignificant">0</data>
      <data key="v_setRank">0.000998192206808152</data>
      <data key="v_pSetRank">1</data>
      <data key="v_correctedPValue">1</data>
      <data key="v_adjustedPValue">8.14095647861251e-009</data>
    </node>
    <node id="n31">
      <data key="v_name">map00332</data>
      <data key="v_description">Carbapenem biosynthesis</data>
      <data key="v_database">KEGG</data>
      <data key="v_pValue">0.058849045691151</data>
      <data key="v_pp">-0</data>
      <data key="v_size">51</data>
      <data key="v_nSignificant">0</data>
      <data key="v_setRank">0.00132606952799148</data>
      <data key="v_pSetRank">1</data>
      <data key="v_correctedPValue">1</data>
      <data key="v_adjustedPValue">8.14095647861251e-009</data>
    </node>
    <node id="n32">
      <data key="v_name">map00333</data>
      <data key="v_description">Prodigiosin biosynthesis</data>
      <data key="v_database">KEGG</data>
      <data key="v_pValue">0.148289225265808</data>
      <data key="v_pp">0.368563273542946</data>
      <data key="v_size">38</data>
      <data key="v_nSignificant">0</data>
      <data key="v_setRank">0.0011572140747647</data>
      <data key="v_pSetRank">1</data>
      <data key="v_correctedPValue">0.427993059572007</data>
      <data key="v_adjustedPValue">8.14095647861251e-009</data>
    </node>
    <node id="n33">
      <data key="v_name">map00340</data>
      <data key="v_description">Histidine metabolism</data>
      <data key="v_database">KEGG</data>
      <data key="v_pValue">0.0014147436597199</data>
      <data key="v_pp">1.82690360860216</data>
      <data key="v_size">94</data>
      <data key="v_nSignificant">0</data>
      <data key="v_setRank">0.00669572702333729</data>
      <data key="v_pSetRank">1</data>
      <data key="v_correctedPValue">0.0148969167718898</data>
      <data key="v_adjustedPValue">8.14095647861251e-009</data>
    </node>
    <node id="n34">
      <data key="v_name">map00350</data>
      <data key="v_description">Tyrosine metabolism</data>
      <data key="v_database">KEGG</data>
      <data key="v_pValue">0.0198392302071074</data>
      <data key="v_pp">0.497169523908093</data>
      <data key="v_size">162</data>
      <data key="v_nSignificant">0</data>
      <data key="v_setRank">0.00447259277491117</data>
      <data key="v_pSetRank">1</data>
      <data key="v_correctedPValue">0.318295483435373</data>
      <data key="v_adjustedPValue">8.14095647861251e-009</data>
    </node>
    <node id="n35">
      <data key="v_name">map00360</data>
      <data key="v_description">Phenylalanine metabolism</data>
      <data key="v_database">KEGG</data>
      <data key="v_pValue">0.000226971237093946</data>
      <data key="v_pp">1.66692411888462</data>
      <data key="v_size">123</data>
      <data key="v_nSignificant">0</data>
      <data key="v_setRank">0.0143399154769717</data>
      <data key="v_pSetRank">0.0399214821750651</data>
      <data key="v_correctedPValue">0.0215315790747762</data>
      <data key="v_adjustedPValue">8.14095647861251e-009</data>
    </node>
    <node id="n36">
      <data key="v_name">map00361</data>
      <data key="v_description">Chlorocyclohexane and chlorobenzene degradation</data>
      <data key="v_database">KEGG</data>
      <data key="v_pValue">0.0458164642375169</data>
      <data key="v_pp">-0</data>
      <data key="v_size">124</data>
      <data key="v_nSignificant">0</data>
      <data key="v_setRank">0.00172480843650123</data>
      <data key="v_pSetRank">1</data>
      <data key="v_correctedPValue">1</data>
      <data key="v_adjustedPValue">8.14095647861251e-009</data>
    </node>
    <node id="n37">
      <data key="v_name">map00362</data>
      <data key="v_description">Benzoate degradation</data>
      <data key="v_database">KEGG</data>
      <data key="v_pValue">0.0751380314561395</data>
      <data key="v_pp">0.373407533656661</data>
      <data key="v_size">178</data>
      <data key="v_nSignificant">0</data>
      <data key="v_setRank">0.00351977173483467</data>
      <data key="v_pSetRank">1</data>
      <data key="v_correctedPValue">0.423245614035088</data>
      <data key="v_adjustedPValue">8.14095647861251e-009</data>
    </node>
    <node id="n38">
      <data key="v_name">map00363</data>
      <data key="v_description">Bisphenol degradation</data>
      <data key="v_database">KEGG</data>
      <data key="v_pValue">1</data>
      <data key="v_pp">-0</data>
      <data key="v_size">27</data>
      <data key="v_nSignificant">0</data>
      <data key="v_setRank">0.000998192206808152</data>
      <data key="v_pSetRank">1</data>
      <data key="v_correctedPValue">1</data>
      <data key="v_adjustedPValue">8.14095647861251e-009</data>
    </node>
    <node id="n39">
      <data key="v_name">map00364</data>
      <data key="v_description">Fluorobenzoate degradation</data>
      <data key="v_database">KEGG</data>
      <data key="v_pValue">0.0899122807017544</data>
      <data key="v_pp">-0</data>
      <data key="v_size">50</data>
      <data key="v_nSignificant">0</data>
      <data key="v_setRank">0.00146306869640975</data>
      <data key="v_pSetRank">1</data>
      <data key="v_correctedPValue">1</data>
      <data key="v_adjustedPValue">8.14095647861251e-009</data>
    </node>
    <node id="n40">
      <data key="v_name">map00380</data>
      <data key="v_description">Tryptophan metabolism</data>
      <data key="v_database">KEGG</data>
      <data key="v_pValue">0.483483301781944</data>
      <data key="v_pp">0.170680179377974</data>
      <data key="v_size">163</data>
      <data key="v_nSignificant">0</data>
      <data key="v_setRank">0.0015586692561567</data>
      <data key="v_pSetRank">1</data>
      <data key="v_correctedPValue">0.675024942658756</data>
      <data key="v_adjustedPValue">8.14095647861251e-009</data>
    </node>
    <node id="n41">
      <data key="v_name">map00400</data>
      <data key="v_description">Phenylalanine, tyrosine and tryptophan biosynthesis</data>
      <data key="v_database">KEGG</data>
      <data key="v_pValue">0.190192744788923</data>
      <data key="v_pp">0.302938985471312</data>
      <data key="v_size">106</data>
      <data key="v_nSignificant">0</data>
      <data key="v_setRank">0.00302751208871836</data>
      <data key="v_pSetRank">1</data>
      <data key="v_correctedPValue">0.49780701754386</data>
      <data key="v_adjustedPValue">8.14095647861251e-009</data>
    </node>
    <node id="n42">
      <data key="v_name">map00401</data>
      <data key="v_description">Novobiocin biosynthesis</data>
      <data key="v_database">KEGG</data>
      <data key="v_pValue">0.102351655404723</data>
      <data key="v_pp">-0</data>
      <data key="v_size">62</data>
      <data key="v_nSignificant">0</data>
      <data key="v_setRank">0.00154566788076268</data>
      <data key="v_pSetRank">1</data>
      <data key="v_correctedPValue">1</data>
      <data key="v_adjustedPValue">8.14095647861251e-009</data>
    </node>
    <node id="n43">
      <data key="v_name">map00402</data>
      <data key="v_description">Benzoxazinoid biosynthesis</data>
      <data key="v_database">KEGG</data>
      <data key="v_pValue">0.238606130711394</data>
      <data key="v_pp">0.622318401822748</data>
      <data key="v_size">17</data>
      <data key="v_nSignificant">0</data>
      <data key="v_setRank">0.000998192206808152</data>
      <data key="v_pSetRank">1</data>
      <data key="v_correctedPValue">0.238606130711394</data>
      <data key="v_adjustedPValue">8.14095647861251e-009</data>
    </node>
    <node id="n44">
      <data key="v_name">map00405</data>
      <data key="v_description">Phenazine biosynthesis</data>
      <data key="v_database">KEGG</data>
      <data key="v_pValue">0.612550607287449</data>
      <data key="v_pp">-0</data>
      <data key="v_size">47</data>
      <data key="v_nSignificant">0</data>
      <data key="v_setRank">0.00131486419255311</data>
      <data key="v_pSetRank">1</data>
      <data key="v_correctedPValue">1</data>
      <data key="v_adjustedPValue">8.14095647861251e-009</data>
    </node>
    <node id="n45">
      <data key="v_name">map00410</data>
      <data key="v_description">beta-Alanine metabolism</data>
      <data key="v_database">KEGG</data>
      <data key="v_pValue">0.000371818813190449</data>
      <data key="v_pp">2.48210018876313</data>
      <data key="v_size">77</data>
      <data key="v_nSignificant">0</data>
      <data key="v_setRank">0.00706294492447169</data>
      <data key="v_pSetRank">1</data>
      <data key="v_correctedPValue">0.00329533682244003</data>
      <data key="v_adjustedPValue">8.14095647861251e-009</data>
    </node>
    <node id="n46">
      <data key="v_name">map00430</data>
      <data key="v_description">Taurine and hypotaurine metabolism</data>
      <data key="v_database">KEGG</data>
      <data key="v_pValue">0.0155892416322026</data>
      <data key="v_pp">0.769837308740251</data>
      <data key="v_size">53</data>
      <data key="v_nSignificant">0</data>
      <data key="v_setRank">0.00549435464037582</data>
      <data key="v_pSetRank">1</data>
      <data key="v_correctedPValue">0.169887995148834</data>
      <data key="v_adjustedPValue">8.14095647861251e-009</data>
    </node>
    <node id="n47">
      <data key="v_name">map00440</data>
      <data key="v_description">Phosphonate and phosphinate metabolism</data>
      <data key="v_database">KEGG</data>
      <data key="v_pValue">0.0512404358914908</data>
      <data key="v_pp">-0</data>
      <data key="v_size">100</data>
      <data key="v_nSignificant">0</data>
      <data key="v_setRank">0.00129027594567481</data>
      <data key="v_pSetRank">1</data>
      <data key="v_correctedPValue">1</data>
      <data key="v_adjustedPValue">8.14095647861251e-009</data>
    </node>
    <node id="n48">
      <data key="v_name">map00450</data>
      <data key="v_description">Selenocompound metabolism</data>
      <data key="v_database">KEGG</data>
      <data key="v_pValue">0.623863609193652</data>
      <data key="v_pp">0.204910346614105</data>
      <data key="v_size">60</data>
      <data key="v_nSignificant">0</data>