<?xml version="1.0" encoding="UTF-8"?>
<graphml xmlns="http://graphml.graphdrawing.org/xmlns"
         xmlns:xsi="http://www.w3.org/2001/XMLSchema-instance"
         xsi:schemaLocation="http://graphml.graphdrawing.org/xmlns
         http://graphml.graphdrawing.org/xmlns/1.0/graphml.xsd">
<!-- Created by igraph -->
  <key id="v_name" for="node" attr.name="name" attr.type="string"/>
  <key id="v_description" for="node" attr.name="description" attr.type="string"/>
  <key id="v_database" for="node" attr.name="database" attr.type="string"/>
  <key id="v_pValue" for="node" attr.name="pValue" attr.type="double"/>
  <key id="v_pp" for="node" attr.name="pp" attr.type="double"/>
  <key id="v_size" for="node" attr.name="size" attr.type="double"/>
  <key id="v_nSignificant" for="node" attr.name="nSignificant" attr.type="double"/>
  <key id="v_setRank" for="node" attr.name="setRank" attr.type="double"/>
  <key id="v_pSetRank" for="node" attr.name="pSetRank" attr.type="double"/>
  <key id="v_correctedPValue" for="node" attr.name="correctedPValue" attr.type="double"/>
  <key id="v_adjustedPValue" for="node" attr.name="adjustedPValue" attr.type="double"/>
  <key id="e_type" for="edge" attr.name="type" attr.type="string"/>
  <key id="e_source_pDiff" for="edge" attr.name="source_pDiff" attr.type="double"/>
  <key id="e_source_ppDiff" for="edge" attr.name="source_ppDiff" attr.type="double"/>
  <key id="e_source_diffSize" for="edge" attr.name="source_diffSize" attr.type="double"/>
  <key id="e_sink_pDiff" for="edge" attr.name="sink_pDiff" attr.type="double"/>
  <key id="e_sink_ppDiff" for="edge" attr.name="sink_ppDiff" attr.type="double"/>
  <key id="e_sink_diffSize" for="edge" attr.name="sink_diffSize" attr.type="double"/>
  <key id="e_deltaP" for="edge" attr.name="deltaP" attr.type="double"/>
  <key id="e_intersectionSize" for="edge" attr.name="intersectionSize" attr.type="double"/>
  <key id="e_pIntersection" for="edge" attr.name="pIntersection" attr.type="double"/>
  <key id="e_ppIntersection" for="edge" attr.name="ppIntersection" attr.type="double"/>
  <key id="e_jaccard" for="edge" attr.name="jaccard" attr.type="double"/>
  <key id="e_significantJaccard" for="edge" attr.name="significantJaccard" attr.type="double"/>
  <key id="e_discardSource" for="edge" attr.name="discardSource" attr.type="boolean"/>
  <key id="e_discardSink" for="edge" attr.name="discardSink" attr.type="boolean"/>
  <graph id="G" edgedefault="directed">
    <node id="n0">
      <data key="v_name">map00010</data>
      <data key="v_description">Glycolysis / Gluconeogenesis</data>
      <data key="v_database">KEGG</data>
      <data key="v_pValue">0.015581394067565</data>
      <data key="v_pp">0.317798284208005</data>
      <data key="v_size">137</data>
      <data key="v_nSignificant">0</data>
      <data key="v_setRank">0.0247037795667325</data>
      <data key="v_pSetRank">3.27705211198901e-05</data>
      <data key="v_correctedPValue">0.4810627347062</data>
      <data key="v_adjustedPValue">0.000150056115784378</data>
    </node>
    <node id="n1">
      <data key="v_name">map00020</data>
      <data key="v_description">Citrate cycle (TCA cycle)</data>
      <data key="v_database">KEGG</data>
      <data key="v_pValue">0.439868310089193</data>
      <data key="v_pp">-0</data>
      <data key="v_size">86</data>
      <data key="v_nSignificant">0</data>
      <data key="v_setRank">0.00256896355123127</data>
      <data key="v_pSetRank">1</data>
      <data key="v_correctedPValue">1</data>
      <data key="v_adjustedPValue">0.000150056115784378</data>
    </node>
    <node id="n2">
      <data key="v_name">map00030</data>
      <data key="v_description">Pentose phosphate pathway</data>
      <data key="v_database">KEGG</data>
      <data key="v_pValue">0.0106175471509853</data>
      <data key="v_pp">0.356062791760068</data>
      <data key="v_size">120</data>
      <data key="v_nSignificant">0</data>
      <data key="v_setRank">0.0164862966505825</data>
      <data key="v_pSetRank">0.00532597843906747</data>
      <data key="v_correctedPValue">0.440491171203946</data>
      <data key="v_adjustedPValue">0.000150056115784378</data>
    </node>
    <node id="n3">
      <data key="v_name">map00040</data>
      <data key="v_description">Pentose and glucuronate interconversions</data>
      <data key="v_database">KEGG</data>
      <data key="v_pValue">0.0199108781596112</data>
      <data key="v_pp">0.789397648994255</data>
      <data key="v_size">147</data>
      <data key="v_nSignificant">0</data>
      <data key="v_setRank">0.00389444661260683</data>
      <data key="v_pSetRank">1</data>
      <data key="v_correctedPValue">0.162406105093852</data>
      <data key="v_adjustedPValue">0.000150056115784378</data>
    </node>
    <node id="n4">
      <data key="v_name">map00051</data>
      <data key="v_description">Fructose and mannose metabolism</data>
      <data key="v_database">KEGG</data>
      <data key="v_pValue">0.120035951515074</data>
      <data key="v_pp">0.646943302957843</data>
      <data key="v_size">166</data>
      <data key="v_nSignificant">0</data>
      <data key="v_setRank">0.00579949997403887</data>
      <data key="v_pSetRank">1</data>
      <data key="v_correctedPValue">0.225453352176038</data>
      <data key="v_adjustedPValue">0.000150056115784378</data>
    </node>
    <node id="n5">
      <data key="v_name">map00052</data>
      <data key="v_description">Galactose metabolism</data>
      <data key="v_database">KEGG</data>
      <data key="v_pValue">0.252805399163528</data>
      <data key="v_pp">0.278405008985172</data>
      <data key="v_size">124</data>
      <data key="v_nSignificant">0</data>
      <data key="v_setRank">0.00899209160655355</data>
      <data key="v_pSetRank">1</data>
      <data key="v_correctedPValue">0.526738413099026</data>
      <data key="v_adjustedPValue">0.000150056115784378</data>
    </node>
    <node id="n6">
      <data key="v_name">map00053</data>
      <data key="v_description">Ascorbate and aldarate metabolism</data>
      <data key="v_database">KEGG</data>
      <data key="v_pValue">0.621400338791643</data>
      <data key="v_pp">0.0374623915297926</data>
      <data key="v_size">119</data>
      <data key="v_nSignificant">0</data>
      <data key="v_setRank">0.00122460174663675</data>
      <data key="v_pSetRank">1</data>
      <data key="v_correctedPValue">0.917355371900826</data>
      <data key="v_adjustedPValue">0.000150056115784378</data>
    </node>
    <node id="n7">
      <data key="v_name">map00061</data>
      <data key="v_description">Fatty acid biosynthesis</data>
      <data key="v_database">KEGG</data>
      <data key="v_pValue">0.0515995816007544</data>
      <data key="v_pp">1.07510606194742</data>
      <data key="v_size">97</data>
      <data key="v_nSignificant">0</data>
      <data key="v_setRank">0.00989962286229741</data>
      <data key="v_pSetRank">0.715355694764349</data>
      <data key="v_correctedPValue">0.0841189684023862</data>
      <data key="v_adjustedPValue">0.000150056115784378</data>
    </node>
    <node id="n8">
      <data key="v_name">map00062</data>
      <data key="v_description">Fatty acid elongation</data>
      <data key="v_database">KEGG</data>
      <data key="v_pValue">1</data>
      <data key="v_pp">-0</data>
      <data key="v_size">64</data>
      <data key="v_nSignificant">0</data>
      <data key="v_setRank">0.00143446603270105</data>
      <data key="v_pSetRank">1</data>
      <data key="v_correctedPValue">1</data>
      <data key="v_adjustedPValue">0.000150056115784378</data>
    </node>
    <node id="n9">
      <data key="v_name">map00071</data>
      <data key="v_description">Fatty acid degradation</data>
      <data key="v_database">KEGG</data>
      <data key="v_pValue">0.576895436579231</data>
      <data key="v_pp">-0</data>
      <data key="v_size">109</data>
      <data key="v_nSignificant">0</data>
      <data key="v_setRank">0.00432264405086765</data>
      <data key="v_pSetRank">1</data>
      <data key="v_correctedPValue">1</data>
      <data key="v_adjustedPValue">0.000150056115784378</data>
    </node>
    <node id="n10">
      <data key="v_name">map00073</data>
      <data key="v_description">Cutin, suberine and wax biosynthesis</data>
      <data key="v_database">KEGG</data>
      <data key="v_pValue">1</data>
      <data key="v_pp">-0</data>
      <data key="v_size">41</data>
      <data key="v_nSignificant">0</data>
      <data key="v_setRank">0.00123008962908167</data>
      <data key="v_pSetRank">1</data>
      <data key="v_correctedPValue">1</data>
      <data key="v_adjustedPValue">0.000150056115784378</data>
    </node>
    <node id="n11">
      <data key="v_name">map00100</data>
      <data key="v_description">Steroid biosynthesis</data>
      <data key="v_database">KEGG</data>
      <data key="v_pValue">1</data>
      <data key="v_pp">-0</data>
      <data key="v_size">91</data>
      <data key="v_nSignificant">0</data>
      <data key="v_setRank">0.0017488971014488</data>
      <data key="v_pSetRank">1</data>
      <data key="v_correctedPValue">1</data>
      <data key="v_adjustedPValue">0.000150056115784378</data>
    </node>
    <node id="n12">
      <data key="v_name">map00130</data>
      <data key="v_description">Ubiquinone and other terpenoid-quinone biosynthesis</data>
      <data key="v_database">KEGG</data>
      <data key="v_pValue">0.716942148760331</data>
      <data key="v_pp">-0</data>
      <data key="v_size">130</data>
      <data key="v_nSignificant">0</data>
      <data key="v_setRank">0.00146276821455464</data>
      <data key="v_pSetRank">1</data>
      <data key="v_correctedPValue">1</data>
      <data key="v_adjustedPValue">0.000150056115784378</data>
    </node>
    <node id="n13">
      <data key="v_name">map00140</data>
      <data key="v_description">Steroid hormone biosynthesis</data>
      <data key="v_database">KEGG</data>
      <data key="v_pValue">0.822314049586777</data>
      <data key="v_pp">0.0849622895707246</data>
      <data key="v_size">146</data>
      <data key="v_nSignificant">0</data>
      <data key="v_setRank">0.00188201311936457</data>
      <data key="v_pSetRank">1</data>
      <data key="v_correctedPValue">0.822314049586777</data>
      <data key="v_adjustedPValue">0.000150056115784378</data>
    </node>
    <node id="n14">
      <data key="v_name">map00190</data>
      <data key="v_description">Oxidative phosphorylation</data>
      <data key="v_database">KEGG</data>
      <data key="v_pValue">0.00568053792029633</data>
      <data key="v_pp">3.0653668160192</data>
      <data key="v_size">239</data>
      <data key="v_nSignificant">0</data>
      <data key="v_setRank">0.00463743842033035</data>
      <data key="v_pSetRank">1</data>
      <data key="v_correctedPValue">0.000860266842278947</data>
      <data key="v_adjustedPValue">0.000150056115784378</data>
    </node>
    <node id="n15">
      <data key="v_name">map00220</data>
      <data key="v_description">Arginine biosynthesis</data>
      <data key="v_database">KEGG</data>
      <data key="v_pValue">0.778426815806928</data>
      <data key="v_pp">0.096687835598665</data>
      <data key="v_size">83</data>
      <data key="v_nSignificant">0</data>
      <data key="v_setRank">0.0021381022736522</data>
      <data key="v_pSetRank">1</data>
      <data key="v_correctedPValue">0.800409370617163</data>
      <data key="v_adjustedPValue">0.000150056115784378</data>
    </node>
    <node id="n16">
      <data key="v_name">map00230</data>
      <data key="v_description">Purine metabolism</data>
      <data key="v_database">KEGG</data>
      <data key="v_pValue">0.0165574102623955</data>
      <data key="v_pp">1.53143826128053</data>
      <data key="v_size">318</data>
      <data key="v_nSignificant">0</data>
      <data key="v_setRank">0.00635263143488738</data>
      <data key="v_pSetRank">1</data>
      <data key="v_correctedPValue">0.0294145181686106</data>
      <data key="v_adjustedPValue">0.000150056115784378</data>
    </node>
    <node id="n17">
      <data key="v_name">map00232</data>
      <data key="v_description">Caffeine metabolism</data>
      <data key="v_database">KEGG</data>
      <data key="v_pValue">0.950413223140496</data>
      <data key="v_pp">-0</data>
      <data key="v_size">38</data>
      <data key="v_nSignificant">0</data>
      <data key="v_setRank">0.0011239397626127</data>
      <data key="v_pSetRank">1</data>
      <data key="v_correctedPValue">1</data>
      <data key="v_adjustedPValue">0.000150056115784378</data>
    </node>
    <node id="n18">
      <data key="v_name">map00240</data>
      <data key="v_description">Pyrimidine metabolism</data>
      <data key="v_database">KEGG</data>
      <data key="v_pValue">0.0014669487809004</data>
      <data key="v_pp">1.08565243092048</data>
      <data key="v_size">174</data>
      <data key="v_nSignificant">0</data>
      <data key="v_setRank">0.00407800273526778</data>
      <data key="v_pSetRank">1</data>
      <data key="v_correctedPValue">0.0821008340510348</data>
      <data key="v_adjustedPValue">0.000150056115784378</data>
    </node>
    <node id="n19">
      <data key="v_name">map00250</data>
      <data key="v_description">Alanine, aspartate and glutamate metabolism</data>
      <data key="v_database">KEGG</data>
      <data key="v_pValue">0.122815775361471</data>
      <data key="v_pp">0.782948397125477</data>
      <data key="v_size">98</data>
      <data key="v_nSignificant">0</data>
      <data key="v_setRank">0.00504294672872426</data>
      <data key="v_pSetRank">1</data>
      <data key="v_correctedPValue">0.164835823783175</data>
      <data key="v_adjustedPValue">0.000150056115784378</data>
    </node>
    <node id="n20">
      <data key="v_name">map00253</data>
      <data key="v_description">Tetracycline biosynthesis</data>
      <data key="v_database">KEGG</data>
      <data key="v_pValue">1</data>
      <data key="v_pp">-0</data>
      <data key="v_size">38</data>
      <data key="v_nSignificant">0</data>
      <data key="v_setRank">0.00173775136546956</data>
      <data key="v_pSetRank">1</data>
      <data key="v_correctedPValue">1</data>
      <data key="v_adjustedPValue">0.000150056115784378</data>
    </node>
    <node id="n21">
      <data key="v_name">map00254</data>
      <data key="v_description">Aflatoxin biosynthesis</data>
      <data key="v_database">KEGG</data>
      <data key="v_pValue">1</data>
      <data key="v_pp">-0</data>
      <data key="v_size">47</data>
      <data key="v_nSignificant">0</data>
      <data key="v_setRank">0.00126007696635916</data>
      <data key="v_pSetRank">1</data>
      <data key="v_correctedPValue">1</data>
      <data key="v_adjustedPValue">0.000150056115784378</data>
    </node>
    <node id="n22">
      <data key="v_name">map00260</data>
      <data key="v_description">Glycine, serine and threonine metabolism</data>
      <data key="v_database">KEGG</data>
      <data key="v_pValue">0.123481504772605</data>
      <data key="v_pp">0.273293216238364</data>
      <data key="v_size">157</data>
      <data key="v_nSignificant">0</data>
      <data key="v_setRank">0.00248576501303798</data>
      <data key="v_pSetRank">1</data>
      <data key="v_correctedPValue">0.532974933114134</data>
      <data key="v_adjustedPValue">0.000150056115784378</data>
    </node>
    <node id="n23">
      <data key="v_name">map00261</data>
      <data key="v_description">Monobactam biosynthesis</data>
      <data key="v_database">KEGG</data>
      <data key="v_pValue">0.262539584540787</data>
      <data key="v_pp">0.133744054562933</data>
      <data key="v_size">67</data>
      <data key="v_nSignificant">0</data>
      <data key="v_setRank">0.00184785574286121</data>
      <data key="v_pSetRank">1</data>
      <data key="v_correctedPValue">0.734946871310508</data>
      <data key="v_adjustedPValue">0.000150056115784378</data>
    </node>
    <node id="n24">
      <data key="v_name">map00270</data>
      <data key="v_description">Cysteine and methionine metabolism</data>
      <data key="v_database">KEGG</data>
      <data key="v_pValue">0.0211277699339386</data>
      <data key="v_pp">0.349637696911725</data>
      <data key="v_size">189</data>
      <data key="v_nSignificant">0</data>
      <data key="v_setRank">0.0125303906957472</data>
      <data key="v_pSetRank">0.0918632372631372</data>
      <data key="v_correctedPValue">0.447056386129427</data>
      <data key="v_adjustedPValue">0.000150056115784378</data>
    </node>
    <node id="n25">
      <data key="v_name">map00280</data>
      <data key="v_description">Valine, leucine and isoleucine degradation</data>
      <data key="v_database">KEGG</data>
      <data key="v_pValue">0.186953837987902</data>
      <data key="v_pp">0.321042692624329</data>
      <data key="v_size">111</data>
      <data key="v_nSignificant">0</data>
      <data key="v_setRank">0.00309246663801954</data>
      <data key="v_pSetRank">1</data>
      <data key="v_correctedPValue">0.477482333213558</data>
      <data key="v_adjustedPValue">0.000150056115784378</data>
    </node>
    <node id="n26">
      <data key="v_name">map00290</data>
      <data key="v_description">Valine, leucine and isoleucine biosynthesis</data>
      <data key="v_database">KEGG</data>
      <data key="v_pValue">0.000748550268107111</data>
      <data key="v_pp">-0</data>
      <data key="v_size">42</data>
      <data key="v_nSignificant">0</data>
      <data key="v_setRank">0.00598493663147275</data>
      <data key="v_pSetRank">1</data>
      <data key="v_correctedPValue">1</data>
      <data key="v_adjustedPValue">0.000150056115784378</data>
    </node>
    <node id="n27">
      <data key="v_name">map00300</data>
      <data key="v_description">Lysine biosynthesis</data>
      <data key="v_database">KEGG</data>
      <data key="v_pValue">0.0237145821036311</data>
      <data key="v_pp">1.09072657606091</data>
      <data key="v_size">83</data>
      <data key="v_nSignificant">0</data>
      <data key="v_setRank">0.00590711472320397</data>
      <data key="v_pSetRank">1</data>
      <data key="v_correctedPValue">0.0811471785001708</data>
      <data key="v_adjustedPValue">0.000150056115784378</data>
    </node>
    <node id="n28">
      <data key="v_name">map00310</data>
      <data key="v_description">Lysine degradation</data>
      <data key="v_database">KEGG</data>
      <data key="v_pValue">0.727844206957913</data>
      <data key="v_pp">0.0108348832325048</data>
      <data key="v_size">148</data>
      <data key="v_nSignificant">0</data>
      <data key="v_setRank">0.00219939051724844</data>
      <data key="v_pSetRank">1</data>
      <data key="v_correctedPValue">0.975360394775546</data>
      <data key="v_adjustedPValue">0.000150056115784378</data>
    </node>
    <node id="n29">
      <data key="v_name">map00330</data>
      <data key="v_description">Arginine and proline metabolism</data>
      <data key="v_database">KEGG</data>
      <data key="v_pValue">0.0409373235460191</data>
      <data key="v_pp">0.126355700804116</data>
      <data key="v_size">176</data>
      <data key="v_nSignificant">0</data>
      <data key="v_setRank">0.00560640719889396</data>
      <data key="v_pSetRank">1</data>
      <data key="v_correctedPValue">0.747556977093001</data>
      <data key="v_adjustedPValue">0.000150056115784378</data>
    </node>
    <node id="n30">
      <data key="v_name">map00331</data>
      <data key="v_description">Clavulanic acid biosynthesis</data>
      <data key="v_database">KEGG</data>
      <data key="v_pValue">0.857438016528926</data>
      <data key="v_pp">-0</data>
      <data key="v_size">15</data>
      <data key="v_nSignificant">0</data>
      <data key="v_setRank">0.0011239397626127</data>
      <data key="v_pSetRank">1</data>
      <data key="v_correctedPValue">1</data>
      <data key="v_adjustedPValue">0.000150056115784378</data>
    </node>
    <node id="n31">
      <data key="v_name">map00332</data>
      <data key="v_description">Carbapenem biosynthesis</data>
      <data key="v_database">KEGG</data>
      <data key="v_pValue">0.236113877102511</data>
      <data key="v_pp">-0</data>
      <data key="v_size">51</data>
      <data key="v_nSignificant">0</data>
      <data key="v_setRank">0.00164452008486205</data>
      <data key="v_pSetRank">1</data>
      <data key="v_correctedPValue">1</data>
      <data key="v_adjustedPValue">0.000150056115784378</data>
    </node>
    <node id="n32">
      <data key="v_name">map00333</data>
      <data key="v_description">Prodigiosin biosynthesis</data>
      <data key="v_database">KEGG</data>
      <data key="v_pValue">0.456008418459011</data>
      <data key="v_pp">-0</data>
      <data key="v_size">38</data>
      <data key="v_nSignificant">0</data>
      <data key="v_setRank">0.00135853294922659</data>
      <data key="v_pSetRank">1</data>
      <data key="v_correctedPValue">1</data>
      <data key="v_adjustedPValue">0.000150056115784378</data>
    </node>
    <node id="n33">
      <data key="v_name">map00340</data>
      <data key="v_description">Histidine metabolism</data>
      <data key="v_database">KEGG</data>
      <data key="v_pValue">0.963193842878293</data>
      <data key="v_pp">-0</data>
      <data key="v_size">94</data>
      <data key="v_nSignificant">0</data>
      <data key="v_setRank">0.00118425863557706</data>
      <data key="v_pSetRank">1</data>
      <data key="v_correctedPValue">1</data>
      <data key="v_adjustedPValue">0.000150056115784378</data>
    </node>
    <node id="n34">
      <data key="v_name">map00350</data>
      <data key="v_description">Tyrosine metabolism</data>
      <data key="v_database">KEGG</data>
      <data key="v_pValue">0.878409302504804</data>
      <data key="v_pp">0.0191497736769262</data>
      <data key="v_size">162</data>
      <data key="v_nSignificant">0</data>
      <data key="v_setRank">0.00378473371653161</data>
      <data key="v_pSetRank">1</data>
      <data key="v_correctedPValue">0.956864023910094</data>
      <data key="v_adjustedPValue">0.000150056115784378</data>
    </node>
    <node id="n35">
      <data key="v_name">map00360</data>
      <data key="v_description">Phenylalanine metabolism</data>
      <data key="v_database">KEGG</data>
      <data key="v_pValue">0.947356597722333</data>
      <data key="v_pp">0.0144615805662227</data>
      <data key="v_size">123</data>
      <data key="v_nSignificant">0</data>
      <data key="v_setRank">0.00231463646863209</data>
      <data key="v_pSetRank">1</data>
      <data key="v_correctedPValue">0.967249289621487</data>
      <data key="v_adjustedPValue">0.000150056115784378</data>
    </node>
    <node id="n36">
      <data key="v_name">map00361</data>
      <data key="v_description">Chlorocyclohexane and chlorobenzene degradation</data>
      <data key="v_database">KEGG</data>
      <data key="v_pValue">0.982204883390654</data>
      <data key="v_pp">-0</data>
      <data key="v_size">124</data>
      <data key="v_nSignificant">0</data>
      <data key="v_setRank">0.00189819397473351</data>
      <data key="v_pSetRank">1</data>
      <data key="v_correctedPValue">1</data>
      <data key="v_adjustedPValue">0.000150056115784378</data>
    </node>
    <node id="n37">
      <data key="v_name">map00362</data>
      <data key="v_description">Benzoate degradation</data>
      <data key="v_database">KEGG</data>
      <data key="v_pValue">0.865702479338843</data>
      <data key="v_pp">-0</data>
      <data key="v_size">178</data>
      <data key="v_nSignificant">0</data>
      <data key="v_setRank">0.00336727778949444</data>
      <data key="v_pSetRank">1</data>
      <data key="v_correctedPValue">1</data>
      <data key="v_adjustedPValue">0.000150056115784378</data>
    </node>
    <node id="n38">
      <data key="v_name">map00363</data>
      <data key="v_description">Bisphenol degradation</data>
      <data key="v_database">KEGG</data>
      <data key="v_pValue">1</data>
      <data key="v_pp">-0</data>
      <data key="v_size">27</data>
      <data key="v_nSignificant">0</data>
      <data key="v_setRank">0.0011239397626127</data>
      <data key="v_pSetRank">1</data>
      <data key="v_correctedPValue">1</data>
      <data key="v_adjustedPValue">0.000150056115784378</data>
    </node>
    <node id="n39">
      <data key="v_name">map00364</data>
      <data key="v_description">Fluorobenzoate degradation</data>
      <data key="v_database">KEGG</data>
      <data key="v_pValue">0.865702479338843</data>
      <data key="v_pp">-0</data>
      <data key="v_size">50</data>
      <data key="v_nSignificant">0</data>
      <data key="v_setRank">0.00174383978943439</data>
      <data key="v_pSetRank">1</data>
      <data key="v_correctedPValue">1</data>
      <data key="v_adjustedPValue">0.000150056115784378</data>
    </node>
    <node id="n40">
      <data key="v_name">map00380</data>
      <data key="v_description">Tryptophan metabolism</data>
      <data key="v_database">KEGG</data>
      <data key="v_pValue">0.477482333213558</data>
      <data key="v_pp">-0</data>
      <data key="v_size">163</data>
      <data key="v_nSignificant">0</data>
      <data key="v_setRank">0.00318105509601793</data>
      <data key="v_pSetRank">1</data>
      <data key="v_correctedPValue">1</data>
      <data key="v_adjustedPValue">0.000150056115784378</data>
    </node>
    <node id="n41">
      <data key="v_name">map00400</data>
      <data key="v_description">Phenylalanine, tyrosine and tryptophan biosynthesis</data>
      <data key="v_database">KEGG</data>
      <data key="v_pValue">0.119192228238677</data>
      <data key="v_pp">-0</data>
      <data key="v_size">106</data>
      <data key="v_nSignificant">0</data>
      <data key="v_setRank">0.00563800837931642</data>
      <data key="v_pSetRank">1</data>
      <data key="v_correctedPValue">1</data>
      <data key="v_adjustedPValue">0.000150056115784378</data>
    </node>
    <node id="n42">
      <data key="v_name">map00401</data>
      <data key="v_description">Novobiocin biosynthesis</data>
      <data key="v_database">KEGG</data>
      <data key="v_pValue">0.62584911794398</data>
      <data key="v_pp">-0</data>
      <data key="v_size">62</data>
      <data key="v_nSignificant">0</data>
      <data key="v_setRank">0.00193194388976143</data>
      <data key="v_pSetRank">1</data>
      <data key="v_correctedPValue">1</data>
      <data key="v_adjustedPValue">0.000150056115784378</data>
    </node>
    <node id="n43">
      <data key="v_name">map00402</data>
      <data key="v_description">Benzoxazinoid biosynthesis</data>
      <data key="v_database">KEGG</data>
      <data key="v_pValue">0.929752066115702</data>
      <data key="v_pp">0.0316328478690688</data>
      <data key="v_size">17</data>
      <data key="v_nSignificant">0</data>
      <data key="v_setRank">0.0011239397626127</data>
      <data key="v_pSetRank">1</data>
      <data key="v_correctedPValue">0.929752066115702</data>
      <data key="v_adjustedPValue">0.000150056115784378</data>
    </node>
    <node id="n44">
      <data key="v_name">map00405</data>
      <data key="v_description">Phenazine biosynthesis</data>
      <data key="v_database">KEGG</data>
      <data key="v_pValue">0.198655099840871</data>
      <data key="v_pp">-0</data>
      <data key="v_size">47</data>
      <data key="v_nSignificant">0</data>
      <data key="v_setRank">0.00137790331813973</data>
      <data key="v_pSetRank">1</data>
      <data key="v_correctedPValue">1</data>
      <data key="v_adjustedPValue">0.000150056115784378</data>
    </node>
    <node id="n45">
      <data key="v_name">map00410</data>
      <data key="v_description">beta-Alanine metabolism</data>
      <data key="v_database">KEGG</data>
      <data key="v_pValue">0.973640983522406</data>
      <data key="v_pp">-0</data>
      <data key="v_size">77</data>
      <data key="v_nSignificant">0</data>
      <data key="v_setRank">0.00175599122430191</data>
      <data key="v_pSetRank">1</data>
      <data key="v_correctedPValue">1</data>
      <data key="v_adjustedPValue">0.000150056115784378</data>
    </node>
    <node id="n46">
      <data key="v_name">map00430</data>
      <data key="v_description">Taurine and hypotaurine metabolism</data>
      <data key="v_database">KEGG</data>
      <data key="v_pValue">0.460599805752578</data>
      <data key="v_pp">0.0230326761071512</data>
      <data key="v_size">53</data>
      <data key="v_nSignificant">0</data>
      <data key="v_setRank">0.00297050473097871</data>
      <data key="v_pSetRank">1</data>
      <data key="v_correctedPValue">0.948347107438017</data>
      <data key="v_adjustedPValue">0.000150056115784378</data>
    </node>
    <node id="n47">
      <data key="v_name">map00440</data>
      <data key="v_description">Phosphonate and phosphinate metabolism</data>
      <data key="v_database">KEGG</data>
      <data key="v_pValue">0.516528925619835</data>
      <data key="v_pp">0.286905352972375</data>
      <data key="v_size">100</data>
      <data key="v_nSignificant">0</data>
      <data key="v_setRank">0.00151677603723119</data>
      <data key="v_pSetRank">1</data>
      <data key="v_correctedPValue">0.516528925619835</data>
      <data key="v_adjustedPValue">0.000150056115784378</data>
    </node>
    <node id="n48">
      <data key="v_name">map00450</data>
      <data key="v_description">Selenocompound metabolism</data>
      <data key="v_database">KEGG</data>
      <data key="v_pValue">0.145491380427147</data>
      <data key="v_pp">0.642378473185515</data>
      <data key="v_size">60</data>
      <data key="v_nSignificant">0</data>
      <data key="v_setRank">0.00143227106047419</data>
      <data key="v_pSetRank">1</data>
      <data key="v_correctedPValue">0.227835569544195</data>
      <data key="v_adjustedPValue">0.000150056115784378</data>
    </node>
    <node id="n49">